# Create simulation box of size 50 x 50 x 50 Angstrom
#
lattice	            sc 1
Lattice spacing in x,y,z = 1.0000000 1.0000000 1.0000000
region 	            all block 0 53.4 0.37122448919505047.0 50.53589551080665.0 0.37122448919505047.0 50.53589551080665.0 units box
create_box          1 all
Created orthogonal box = (0.0000000 0.37122449 0.37122449) to (53.400000 50.535896 50.535896)

# fill box with 4175 randomly distributed atoms
#
create_atoms        1 random 4608 63782 all
Created 4608 atoms
mass                1 18.015

# Define potential
#
pair_style          sw
pair_coeff          * * /data/emrosky-sim/Freezing_Simulations/Melting/mW_fancy/mW.sw mW
Reading sw potential file /data/emrosky-sim/Freezing_Simulations/Melting/mW_fancy/mW.sw with DATE: 2019-02-27

# Run minimization
#
minimize            1.0e-8 1.0e-8 10000 1000
  update every 1 steps, delay 0 steps, check yes
Step Temp E_pair E_mol TotEng Press
0            0      4750899            0      4750899    3378087.4
Loop time of 2.17302 on 6 procs for 675 steps with 4608 atoms

Minimization stats:
  Stopping criterion = max force evaluations
  Energy initial, next-to-last, final =
  Force two-norm initial, final = 1.0875476e+08 5.2891467
  Force max component initial, final = 57447196.0 1.9508663
  Final line search alpha, max atom move = 0.037538489 0.073232572
  Iterations, force evaluations = 675 1000

# Add velocity/set timestep
#
velocity            all create 278 120598 rot yes dist gaussian
timestep            5.0

# Define output
#
compute	            1 all msd
thermo	            100
thermo_style        custom step temp press vol etotal ke pe c_1[4] density

# Neighbor lists
#
neigh_modify        delay 0 every 1 check yes

# Set fixes
#
fix                 1 all momentum 10 linear 1 1 1 rescale
fix                 2 all nve
fix                 3 all temp/csvr 278 278 500.0 928347
fix                 4 all press/berendsen iso -500 -500 1000.0 modulus 20000

# Run 0.5 ns equilibration
#
dump                1 all custom 1000 eq.liq_278K_-500atm_mW.dump id type x y z vx vy vz
run                 100000
Step Temp Press Volume TotEng KinEng PotEng c_1[4] Density
675          278    1685.5781    134380.79   -48352.666    3817.6605   -52170.327            0    1.0257903
Averages over the last 501 of 1002 rows, steps 50700 to 100675:
Temp Press Volume TotEng KinEng PotEng c_1[4] Density
277.556 -497.24 139147 -43062.9 3811.57 -46874.5 1059.38 0.990655
Loop time of 183.674 on 6 procs for 100000 steps with 4608 atoms

undump              1
unfix               2
unfix               3
unfix               4

################################################
#######         Run Simulation         #########
################################################

reset_timestep      0
log                 log.run_liq_278K_-500atm_mW
