# Import phase coexistance setup
#
read_data           ../data.ice_water_1atm
Reading data file ...
  orthogonal box = (-0.037551654 -0.031298218 -0.031298218) to (113.76774 57.301808 57.301808)
  reading atoms ...
  11553 atoms
  reading velocities ...
  11553 velocities

# Define potential
#
pair_style 	    sw
pair_coeff	    * * ../ML.sw mW
Reading sw potential file ../ML.sw with DATE: 2019-02-27

# Reset velocity/set timestep
#
velocity	    all create 287 120598 rot yes dist gaussian
timestep	    10.0

# Define output
#
compute	            1 all msd
compute             2 all orientorder/atom nnn NULL degrees 2 4 12
thermo              100
thermo_style        custom step temp press vol etotal ke pe c_1[4]

# Neighbor lists
#
neigh_modify        delay 0 every 1 check yes

# Set fixes
#
fix                 1 all momentum 10 linear 1 1 1 rescale
fix                 2 all nph iso 0 0 10000.0
fix                 3 all temp/csvr 287 287 5000.0 837492

# Run longer equilibration 0.5 ns
#
dump 1 all atom 1000 eq.Tmelt_287K_AUTO.dump
run 50000
  update every 1 steps, delay 0 steps, check yes
Step Temp Press Volume TotEng KinEng PotEng c_1[4]
0          287   -103.75023    374087.66   -103807.79    9882.6492   -113690.44            0
Averages over the last 251 of 501 rows, steps 25000 to 50000:
Temp Press Volume TotEng KinEng PotEng c_1[4]
287.849 -4.64585 363356 -111996 9911.87 -121908 387.455
Loop time of 146.386 on 6 procs for 50000 steps with 11553 atoms

reset_timestep      0
undump              1

################################################
#######         Run Simulation         #########
################################################

log                 log.run_Tmelt_287K_AUTO
