read_data data.ice_290K_1atm_ML group ice
Reading data file ...
  orthogonal box = (-0.018374848 -0.016333198 -0.016333198) to (57.288885 50.923453 50.923453)
  reading atoms ...
  4608 atoms
  reading velocities ...
  4608 velocities
read_data data.liq_290K_1atm_ML add append shift 50.923453198384 0.0163331983858441 0.0163331983858441 group water
Reading data file ...
  orthogonal box = (-0.018374848 -0.016333198 -0.016333198) to (104.21313 50.924637 50.924637)
  reading atoms ...
  4608 atoms
  reading velocities ...
  4608 velocities

write_data data.icewater_test
System init for write_data ...

# Define potential
#
pair_style sw
pair_coeff * * /data/emrosky-sim/Freezing_Simulations/Melting/MLmW_fancy/ML_mW.sw mW
Reading sw potential file /data/emrosky-sim/Freezing_Simulations/Melting/MLmW_fancy/ML_mW.sw with DATE: 2019-02-27

# Delete water and ice atoms that are overlapping
#
delete_atoms overlap 2.5 water ice
System init for delete_atoms ...
  update every 1 steps, delay 10 steps, check yes
Deleted 675 atoms, new total = 8541

# set timestep
#
timestep 10.0

# Define output
#
compute 1 all msd
thermo 50
thermo_style custom step temp press vol etotal ke pe c_1[4]

# Neighbor lists
#
neigh_modify delay 0 every 1 check yes

# Set fixes
#
fix 1 all momentum 10 linear 1 1 1 rescale
fix 2 all nph iso 1 1 10000.0
fix 3 all temp/csvr 290 290 5000.0 837492

# Fix ice atoms in place
#
velocity ice set 0.0 0.0 0.0
fix 4 ice setforce 0.0 0.0 0.0

# Run 1.0 ns equilibration of water
#
dump 1 all atom 1000 eq.all.coexist_290K_1atm_ML.dump
run 100000
  update every 1 steps, delay 0 steps, check yes
Step Temp Press Volume TotEng KinEng PotEng c_1[4]
0    134.35946   -326.54183    270478.93   -84421.645    3420.2702   -87841.915            0
Averages over the last 1001 of 2001 rows, steps 50000 to 100000:
Temp Press Volume TotEng KinEng PotEng c_1[4]
290.77 8.84396 274727 -77030 7401.87 -84431.9 3694.9
Loop time of 252.878 on 6 procs for 100000 steps with 8541 atoms

# Create data file for import to other simulations
#
write_data data.coexist_290K_1atm_ML
System init for write_data ...
