# Create simulation box of size 50 x 50 x 50 Angstrom
#
lattice	            sc 1
Lattice spacing in x,y,z = 1.0000000 1.0000000 1.0000000
region 	            all block 0 53.4 0.0017030998517881812.0 50.905416900146605.0 0.0017030998517881812.0 50.905416900146605.0 units box
create_box          1 all
Created orthogonal box = (0.0000000 0.0017030999 0.0017030999) to (53.400000 50.905417 50.905417)

# fill box with 4175 randomly distributed atoms
#
create_atoms        1 random 4608 63782 all
Created 4608 atoms
mass                1 18.015

# Define potential
#
pair_style          sw
pair_coeff          * * ../ML_mW.sw mW
Reading sw potential file ../ML_mW.sw with DATE: 2019-02-27

# Run minimization
#
minimize            1.0e-8 1.0e-8 10000 1000
  update every 1 steps, delay 0 steps, check yes
Step Temp E_pair E_mol TotEng Press
0            0      7264096            0      7264096      4989818
Loop time of 1.34477 on 6 procs for 648 steps with 4608 atoms

Minimization stats:
  Stopping criterion = max force evaluations
  Energy initial, next-to-last, final =
  Force two-norm initial, final = 1.6701849e+08 3.9487980
  Force max component initial, final = 88785271.0 1.2390950
  Final line search alpha, max atom move = 0.072520007 0.089859176
  Iterations, force evaluations = 648 1001

# Add velocity/set timestep
#
velocity            all create 291 120598 rot yes dist gaussian
timestep            5.0

# Define output
#
compute	            1 all msd
thermo	            100
thermo_style        custom step temp press vol etotal ke pe c_1[4] density

# Neighbor lists
#
neigh_modify        delay 0 every 1 check yes

# Set fixes
#
fix                 1 all momentum 10 linear 1 1 1 rescale
fix                 2 all nve
fix                 3 all temp/csvr 291 291 500.0 928347
fix                 4 all press/berendsen iso 1 1 1000.0 modulus 20000

# Run 0.5 ns equilibration
#
dump                1 all custom 1000 eq.liq_291K_1atm_ML.dump id type x y z vx vy vz
run                 100000
Step Temp Press Volume TotEng KinEng PotEng c_1[4] Density
648          291    832.87851    138369.44   -45882.904    3996.1842   -49879.088 1.6588576e-34   0.99622079
Averages over the last 501 of 1002 rows, steps 50700 to 100648:
Temp Press Volume TotEng KinEng PotEng c_1[4] Density
290.54 -5.56923 138161 -41119.9 3989.86 -45109.8 932.969 0.997731
Loop time of 133.876 on 6 procs for 100000 steps with 4608 atoms

undump              1
unfix               2
unfix               3
unfix               4

################################################
#######         Run Simulation         #########
################################################

reset_timestep      0
log                 log.run_liq_291K_1atm_ML
