read_data data.ice_289K_1atm_ML group ice
Reading data file ...
  orthogonal box = (-0.011976765 -0.010646014 -0.010646014) to (57.282487 50.917766 50.917766)
  reading atoms ...
  4608 atoms
  reading velocities ...
  4608 velocities
read_data data.liq_289K_1atm_ML add append shift 50.9177660135662 0.010646013565168 0.010646013565168 group water
Reading data file ...
  orthogonal box = (-0.011976765 -0.010646014 -0.010646014) to (104.26486 50.917766 50.917766)
  reading atoms ...
  4608 atoms
  reading velocities ...
  4608 velocities

write_data data.icewater_test
System init for write_data ...

# Define potential
#
pair_style sw
pair_coeff * * /data/emrosky-sim/Freezing_Simulations/Melting/MLmW_fancy/ML_mW.sw mW
Reading sw potential file /data/emrosky-sim/Freezing_Simulations/Melting/MLmW_fancy/ML_mW.sw with DATE: 2019-02-27

# Delete water and ice atoms that are overlapping
#
delete_atoms overlap 2.5 water ice
System init for delete_atoms ...
  update every 1 steps, delay 10 steps, check yes
Deleted 695 atoms, new total = 8521

# set timestep
#
timestep 10.0

# Define output
#
compute 1 all msd
thermo 50
thermo_style custom step temp press vol etotal ke pe c_1[4]

# Neighbor lists
#
neigh_modify delay 0 every 1 check yes

# Set fixes
#
fix 1 all momentum 10 linear 1 1 1 rescale
fix 2 all nph iso 1 1 10000.0
fix 3 all temp/csvr 289 289 5000.0 837492

# Fix ice atoms in place
#
velocity ice set 0.0 0.0 0.0
fix 4 ice setforce 0.0 0.0 0.0

# Run 1.0 ns equilibration of water
#
dump 1 all atom 1000 eq.all.coexist_289K_1atm_ML.dump
run 100000
  update every 1 steps, delay 0 steps, check yes
Step Temp Press Volume TotEng KinEng PotEng c_1[4]
0    136.01082   -657.95258    270463.15   -84460.773    3454.1991   -87914.972            0
Averages over the last 1001 of 2001 rows, steps 50000 to 100000:
Temp Press Volume TotEng KinEng PotEng c_1[4]
289.682 -2.33447 274070 -76997.7 7356.91 -84354.7 3561.66
Loop time of 252.083 on 6 procs for 100000 steps with 8521 atoms

# Create data file for import to other simulations
#
write_data data.coexist_289K_1atm_ML
System init for write_data ...
