# Create simulation box of size 50 x 50 x 50 Angstrom
#
lattice	            sc 1
Lattice spacing in x,y,z = 1.0000000 1.0000000 1.0000000
region 	            all block 0 53.4 0.43946334865399805.0 50.467656651347426.0 0.43946334865399805.0 50.467656651347426.0 units box
create_box          1 all
Created orthogonal box = (0.0000000 0.43946335 0.43946335) to (53.400000 50.467657 50.467657)

# fill box with 4175 randomly distributed atoms
#
create_atoms        1 random 4608 63782 all
Created 4608 atoms
mass                1 18.015

# Define potential
#
pair_style          sw
pair_coeff          * * /data/emrosky-sim/Freezing_Simulations/Melting/mW_fancy/mW.sw mW
Reading sw potential file /data/emrosky-sim/Freezing_Simulations/Melting/mW_fancy/mW.sw with DATE: 2019-02-27

# Run minimization
#
minimize            1.0e-8 1.0e-8 10000 1000
  update every 1 steps, delay 0 steps, check yes
Step Temp E_pair E_mol TotEng Press
0            0    4783806.7            0    4783806.7    3420193.2
Loop time of 2.08432 on 6 procs for 678 steps with 4608 atoms

Minimization stats:
  Stopping criterion = max force evaluations
  Energy initial, next-to-last, final =
  Force two-norm initial, final = 1.0959781e+08 5.3210988
  Force max component initial, final = 57824094.0 1.4631981
  Final line search alpha, max atom move = 0.041895459 0.061301356
  Iterations, force evaluations = 678 1001

# Add velocity/set timestep
#
velocity            all create 277 120598 rot yes dist gaussian
timestep            5.0

# Define output
#
compute	            1 all msd
thermo	            100
thermo_style        custom step temp press vol etotal ke pe c_1[4] density

# Neighbor lists
#
neigh_modify        delay 0 every 1 check yes

# Set fixes
#
fix                 1 all momentum 10 linear 1 1 1 rescale
fix                 2 all nve
fix                 3 all temp/csvr 277 277 500.0 928347
fix                 4 all press/berendsen iso 1 1 1000.0 modulus 20000

# Run 0.5 ns equilibration
#
dump                1 all custom 1000 eq.liq_277K_1atm_mW.dump id type x y z vx vy vz
run                 100000
Step Temp Press Volume TotEng KinEng PotEng c_1[4] Density
678          277    1774.8924    133650.59   -48402.401     3803.928   -52206.329 6.1319075e-34    1.0313947
Averages over the last 501 of 1002 rows, steps 50700 to 100678:
Temp Press Volume TotEng KinEng PotEng c_1[4] Density
276.389 6.41447 137637 -43148.3 3795.54 -46943.8 1100.4 1.00153
Loop time of 187.073 on 6 procs for 100000 steps with 4608 atoms

undump              1
unfix               2
unfix               3
unfix               4

################################################
#######         Run Simulation         #########
################################################

reset_timestep      0
log                 log.run_liq_277K_1atm_mW
