# Create simulation box of size 50 x 50 x 50 Angstrom
#
lattice	            sc 1
Lattice spacing in x,y,z = 1.0000000 1.0000000 1.0000000
region 	            all block 0 53.4 -0.028312479038429927.0 50.93543247903648.0 -0.028312479038429927.0 50.93543247903648.0 units box
create_box          1 all
Created orthogonal box = (0.0000000 -0.028312479 -0.028312479) to (53.400000 50.935432 50.935432)

# fill box with 4175 randomly distributed atoms
#
create_atoms        1 random 4608 63782 all
Created 4608 atoms
mass                1 18.015

# Define potential
#
pair_style          sw
pair_coeff          * * /data/emrosky-sim/Freezing_Simulations/Melting/MLmW_fancy/ML_mW.sw mW
Reading sw potential file /data/emrosky-sim/Freezing_Simulations/Melting/MLmW_fancy/ML_mW.sw with DATE: 2019-02-27

# Run minimization
#
minimize            1.0e-8 1.0e-8 10000 1000
  update every 1 steps, delay 0 steps, check yes
Step Temp E_pair E_mol TotEng Press
0            0    7242461.5            0    7242461.5    4963195.5
Loop time of 1.29746 on 6 procs for 658 steps with 4608 atoms

Minimization stats:
  Stopping criterion = max force evaluations
  Energy initial, next-to-last, final =
  Force two-norm initial, final = 1.6645244e+08 4.8863041
  Force max component initial, final = 88528728.0 1.3105872
  Final line search alpha, max atom move = 0.055733875 0.073044103
  Iterations, force evaluations = 658 1001

# Add velocity/set timestep
#
velocity            all create 296 120598 rot yes dist gaussian
timestep            5.0

# Define output
#
compute	            1 all msd
thermo	            100
thermo_style        custom step temp press vol etotal ke pe c_1[4] density

# Neighbor lists
#
neigh_modify        delay 0 every 1 check yes

# Set fixes
#
fix                 1 all momentum 10 linear 1 1 1 rescale
fix                 2 all nve
fix                 3 all temp/csvr 296 296 500.0 928347
fix                 4 all press/berendsen iso -500 -500 1000.0 modulus 20000

# Run 0.5 ns equilibration
#
dump                1 all custom 1000 eq.liq_296K_-500atm_ML.dump id type x y z vx vy vz
run                 100000
Step Temp Press Volume TotEng KinEng PotEng c_1[4] Density
658          296    1114.1413       138696    -45732.38    4064.8472   -49797.227 2.1726897e-33   0.99387524
Averages over the last 501 of 1002 rows, steps 50700 to 100658:
Temp Press Volume TotEng KinEng PotEng c_1[4] Density
295.326 -498.877 140251 -40885.1 4055.59 -44940.7 939.869 0.982858
Loop time of 117.16 on 6 procs for 100000 steps with 4608 atoms

undump              1
unfix               2
unfix               3
unfix               4

################################################
#######         Run Simulation         #########
################################################

reset_timestep      0
log                 log.run_liq_296K_-500atm_ML
