# Create simulation box of size ~50 x 30 x 30 Angstrom
#
#variable	    lattice_constant equal 6.36339
region all block 0 51.0977766438042 0 31.9361104023641 0 31.9361104023641 units box
create_box 1 all
Created orthogonal box = (0.0000000 0.0000000 0.0000000) to (51.097777 31.936110 31.936110)

# fill box with randomly distributed atoms
#
create_atoms 1 random 1652 63782 all
Created 1652 atoms
mass 1 18.015
group water region all
1652 atoms in group water

# Define potential
#
pair_style sw
pair_coeff * * ML.sw mW
Reading sw potential file ML.sw with DATE: 2019-02-27

# Run minimization
#
minimize 1.0e-8 1.0e-8 10000 1000
  update every 1 steps, delay 0 steps, check yes
Step Temp E_pair E_mol TotEng Press
0            0     10568564            0     10568564     18786184
Loop time of 0.94881 on 4 procs for 608 steps with 1652 atoms

Minimization stats:
  Stopping criterion = max force evaluations
  Energy initial, next-to-last, final =
  Force two-norm initial, final = 5.6030725e+08 2.7669943
  Force max component initial, final = 3.1532939e+08 0.56121165
  Final line search alpha, max atom move = 0.058061677 0.032584889
  Iterations, force evaluations = 608 1000

# Add velocity/set timestep
#
velocity all create 294 120598 rot yes dist gaussian
timestep 10.0

# Define output
#
compute 1 all msd
thermo 50
thermo_style custom step temp press vol etotal ke pe c_1[4]

# Neighbor lists
#
neigh_modify delay 0 every 1 check yes

# Set fixes
#
fix 1 all momentum 10 linear 1 1 1 rescale
fix 2 all nve
fix 3 all temp/csvr 294 294 500.0 928347
fix 4 all press/berendsen iso -1000 -1000 1000.0 modulus 20000

# Run 1 ns equilibration
#
dump 1 all atom 1000 eq.water.icewater_294K_1000atm_ML_DC.dump
run 100000
Step Temp Press Volume TotEng KinEng PotEng c_1[4]
608          294   -12.852412    52115.396   -16266.912    1446.8673   -17713.779 1.4247233e-33
Averages over the last 1001 of 2002 rows, steps 50650 to 100608:
Temp Press Volume TotEng KinEng PotEng c_1[4]
293.004 -1004.59 51154.1 -14631.4 1441.97 -16073.4 1731.05
Loop time of 101.295 on 4 procs for 100000 steps with 1652 atoms

undump 1
reset_timestep 0
#unfix 2
#unfix 3
#unfix 4

################################################
####### Insert Ice #########
################################################

log log.icewater_294K_1000atm_ML_DC.eq_all
