read_data data.ice_296K_-1000atm_ML group ice
Reading data file ...
  orthogonal box = (-0.11330001 -0.10071112 -0.10071112) to (57.383810 51.007831 51.007831)
  reading atoms ...
  4608 atoms
  reading velocities ...
  4608 velocities
read_data data.liq_296K_-1000atm_ML add append shift 51.0078311207397 0.100711120739568 0.100711120739568 group water
Reading data file ...
  orthogonal box = (-0.11330001 -0.19077721 -0.19077721) to (104.59592 51.299319 51.299319)
  reading atoms ...
  4608 atoms
  reading velocities ...
  4608 velocities

write_data data.icewater_test
System init for write_data ...

# Define potential
#
pair_style sw
pair_coeff * * /data/emrosky-sim/Freezing_Simulations/Melting/MLmW_fancy/ML_mW.sw mW
Reading sw potential file /data/emrosky-sim/Freezing_Simulations/Melting/MLmW_fancy/ML_mW.sw with DATE: 2019-02-27

# Delete water and ice atoms that are overlapping
#
delete_atoms overlap 2.5 water ice
System init for delete_atoms ...
  update every 1 steps, delay 10 steps, check yes
Deleted 679 atoms, new total = 8537

# set timestep
#
timestep 10.0

# Define output
#
compute 1 all msd
thermo 50
thermo_style custom step temp press vol etotal ke pe c_1[4]

# Neighbor lists
#
neigh_modify delay 0 every 1 check yes

# Set fixes
#
fix 1 all momentum 10 linear 1 1 1 rescale
fix 2 all nph iso -1000 -1000 10000.0
fix 3 all temp/csvr 296 296 5000.0 837492

# Fix ice atoms in place
#
velocity ice set 0.0 0.0 0.0
fix 4 ice setforce 0.0 0.0 0.0

# Run 1.0 ns equilibration of water
#
dump 1 all atom 1000 eq.all.coexist_296K_-1000atm_ML.dump
run 100000
  update every 1 steps, delay 0 steps, check yes
Step Temp Press Volume TotEng KinEng PotEng c_1[4]
0    138.50593   -1867.3507    277608.24   -83496.162    3524.1718   -87020.334            0
Averages over the last 1001 of 2001 rows, steps 50000 to 100000:
Temp Press Volume TotEng KinEng PotEng c_1[4]
296.864 -992.062 279551 -75782.8 7553.46 -83336.2 3877.4
Loop time of 246.144 on 6 procs for 100000 steps with 8537 atoms

# Create data file for import to other simulations
#
write_data data.coexist_296K_-1000atm_ML
System init for write_data ...
