read_data data.ice_296K_-1000atm_ML group ice
Reading data file ...
  orthogonal box = (-0.098075147 -0.087177909 -0.087177909) to (57.368585 50.994298 50.994298)
  reading atoms ...
  4608 atoms
  reading velocities ...
  4608 velocities
read_data data.liq_296K_-1000atm_ML add append shift 50.9942979086108 0.0871779086090285 0.0871779086090285 group water
Reading data file ...
  orthogonal box = (-0.098075147 -0.21700836 -0.21700836) to (104.53224 51.298484 51.298484)
  reading atoms ...
  4608 atoms
  reading velocities ...
  4608 velocities

write_data data.icewater_test
System init for write_data ...

# Define potential
#
pair_style sw
pair_coeff * * /data/emrosky-sim/Freezing_Simulations/Melting/MLmW_fancy/ML_mW.sw mW
Reading sw potential file /data/emrosky-sim/Freezing_Simulations/Melting/MLmW_fancy/ML_mW.sw with DATE: 2019-02-27

# Delete water and ice atoms that are overlapping
#
delete_atoms overlap 2.5 water ice
System init for delete_atoms ...
  update every 1 steps, delay 10 steps, check yes
Deleted 678 atoms, new total = 8538

# set timestep
#
timestep 10.0

# Define output
#
compute 1 all msd
thermo 50
thermo_style custom step temp press vol etotal ke pe c_1[4]

# Neighbor lists
#
neigh_modify delay 0 every 1 check yes

# Set fixes
#
fix 1 all momentum 10 linear 1 1 1 rescale
fix 2 all nph iso -1000 -1000 10000.0
fix 3 all temp/csvr 296 296 5000.0 837492

# Fix ice atoms in place
#
velocity ice set 0.0 0.0 0.0
fix 4 ice setforce 0.0 0.0 0.0

# Run 1.0 ns equilibration of water
#
dump 1 all atom 1000 eq.all.coexist_296K_-1000atm_ML.dump
run 100000
  update every 1 steps, delay 0 steps, check yes
Step Temp Press Volume TotEng KinEng PotEng c_1[4]
0      134.579   -1981.1767    277672.73   -83565.171    3424.6554   -86989.826            0
Averages over the last 1001 of 2001 rows, steps 50000 to 100000:
Temp Press Volume TotEng KinEng PotEng c_1[4]
296.949 -996.606 279674 -75715.6 7556.52 -83272.1 3981.61
Loop time of 247.789 on 6 procs for 100000 steps with 8538 atoms

# Create data file for import to other simulations
#
write_data data.coexist_296K_-1000atm_ML
System init for write_data ...
