# Create simulation box of size 50 x 50 x 50 Angstrom
#
lattice	            sc 1
Lattice spacing in x,y,z = 1.0000000 1.0000000 1.0000000
region 	            all block 0 53.4 -0.08717790860902852.0 50.99429790861084.0 -0.08717790860902852.0 50.99429790861084.0 units box
create_box          1 all
Created orthogonal box = (0.0000000 -0.087177909 -0.087177909) to (53.400000 50.994298 50.994298)

# fill box with 4175 randomly distributed atoms
#
create_atoms        1 random 4608 63782 all
Created 4608 atoms
mass                1 18.015

# Define potential
#
pair_style          sw
pair_coeff          * * /data/emrosky-sim/Freezing_Simulations/Melting/MLmW_fancy/ML_mW.sw mW
Reading sw potential file /data/emrosky-sim/Freezing_Simulations/Melting/MLmW_fancy/ML_mW.sw with DATE: 2019-02-27

# Run minimization
#
minimize            1.0e-8 1.0e-8 10000 1000
  update every 1 steps, delay 0 steps, check yes
Step Temp E_pair E_mol TotEng Press
0            0    7200269.3            0    7200269.3    4911470.2
Loop time of 1.27764 on 6 procs for 661 steps with 4608 atoms

Minimization stats:
  Stopping criterion = max force evaluations
  Energy initial, next-to-last, final =
  Force two-norm initial, final = 1.6534818e+08 7.2263475
  Force max component initial, final = 88027581.0 1.1585878
  Final line search alpha, max atom move = 0.031144579 0.036083729
  Iterations, force evaluations = 661 1001

# Add velocity/set timestep
#
velocity            all create 296 120598 rot yes dist gaussian
timestep            5.0

# Define output
#
compute	            1 all msd
thermo	            100
thermo_style        custom step temp press vol etotal ke pe c_1[4] density

# Neighbor lists
#
neigh_modify        delay 0 every 1 check yes

# Set fixes
#
fix                 1 all momentum 10 linear 1 1 1 rescale
fix                 2 all nve
fix                 3 all temp/csvr 296 296 500.0 928347
fix                 4 all press/berendsen iso -1000 -1000 1000.0 modulus 20000

# Run 0.5 ns equilibration
#
dump                1 all custom 1000 eq.liq_296K_-1000atm_ML.dump id type x y z vx vy vz
run                 100000
Step Temp Press Volume TotEng KinEng PotEng c_1[4] Density
661          296    1039.4617    139337.54   -45814.147    4064.8472   -49878.995            0   0.98929922
Averages over the last 501 of 1002 rows, steps 50700 to 100661:
Temp Press Volume TotEng KinEng PotEng c_1[4] Density
295.357 -1001.15 142764 -40838.3 4056.02 -44894.4 831.703 0.96556
Loop time of 113.175 on 6 procs for 100000 steps with 4608 atoms

undump              1
unfix               2
unfix               3
unfix               4

################################################
#######         Run Simulation         #########
################################################

reset_timestep      0
log                 log.run_liq_296K_-1000atm_ML
