read_data data.ice_276K_-500atm_mW group ice
Reading data file ...
  orthogonal box = (0.42817931 0.38060383 0.38060383) to (56.842331 50.526516 50.526516)
  reading atoms ...
  4608 atoms
  reading velocities ...
  4608 velocities
read_data data.liq_276K_-500atm_mW add append shift 50.5265161671143 -0.380603832883992 -0.380603832883992 group water
Reading data file ...
  orthogonal box = (0.42817931 -0.29961112 -0.29961112) to (104.12136 50.526516 50.526516)
  reading atoms ...
  4608 atoms
  reading velocities ...
  4608 velocities

write_data data.icewater_test
System init for write_data ...

# Define potential
#
pair_style sw
pair_coeff * * /data/emrosky-sim/Freezing_Simulations/Melting/mW_fancy/mW.sw mW
Reading sw potential file /data/emrosky-sim/Freezing_Simulations/Melting/mW_fancy/mW.sw with DATE: 2019-02-27

# Delete water and ice atoms that are overlapping
#
delete_atoms overlap 2.5 water ice
System init for delete_atoms ...
  update every 1 steps, delay 10 steps, check yes
Deleted 677 atoms, new total = 8539

# set timestep
#
timestep 10.0

# Define output
#
compute 1 all msd
thermo 50
thermo_style custom step temp press vol etotal ke pe c_1[4]

# Neighbor lists
#
neigh_modify delay 0 every 1 check yes

# Set fixes
#
fix 1 all momentum 10 linear 1 1 1 rescale
fix 2 all nph iso -500 -500 10000.0
fix 3 all temp/csvr 276 276 5000.0 837492

# Fix ice atoms in place
#
velocity ice set 0.0 0.0 0.0
fix 4 ice setforce 0.0 0.0 0.0

# Run 1.0 ns equilibration of water
#
dump 1 all atom 1000 eq.all.coexist_276K_-500atm_mW.dump
run 100000
  update every 1 steps, delay 0 steps, check yes
Step Temp Press Volume TotEng KinEng PotEng c_1[4]
0    129.17277   -1572.4905     267870.1   -86311.735    3287.4672   -89599.202            0
Averages over the last 1001 of 2001 rows, steps 50000 to 100000:
Temp Press Volume TotEng KinEng PotEng c_1[4]
276.559 -498.045 269945 -79817.2 7038.48 -86855.7 3981.41
Loop time of 360.457 on 6 procs for 100000 steps with 8539 atoms

# Create data file for import to other simulations
#
write_data data.coexist_276K_-500atm_mW
System init for write_data ...
