read_data data.ice_275K_-1000atm_mW group ice
Reading data file ...
  orthogonal box = (0.39048519 0.34709795 0.34709795) to (56.880025 50.560022 50.560022)
  reading atoms ...
  4608 atoms
  reading velocities ...
  4608 velocities
read_data data.liq_275K_-1000atm_mW add append shift 50.5600220525666 -0.347097947430196 -0.347097947430196 group water
Reading data file ...
  orthogonal box = (0.39048519 -0.38888298 -0.38888298) to (104.38991 50.601807 50.601807)
  reading atoms ...
  4608 atoms
  reading velocities ...
  4608 velocities

write_data data.icewater_test
System init for write_data ...

# Define potential
#
pair_style sw
pair_coeff * * /data/emrosky-sim/Freezing_Simulations/Melting/mW_fancy/mW.sw mW
Reading sw potential file /data/emrosky-sim/Freezing_Simulations/Melting/mW_fancy/mW.sw with DATE: 2019-02-27

# Delete water and ice atoms that are overlapping
#
delete_atoms overlap 2.5 water ice
System init for delete_atoms ...
  update every 1 steps, delay 10 steps, check yes
Deleted 711 atoms, new total = 8505

# set timestep
#
timestep 10.0

# Define output
#
compute 1 all msd
thermo 50
thermo_style custom step temp press vol etotal ke pe c_1[4]

# Neighbor lists
#
neigh_modify delay 0 every 1 check yes

# Set fixes
#
fix 1 all momentum 10 linear 1 1 1 rescale
fix 2 all nph iso -1000 -1000 10000.0
fix 3 all temp/csvr 275 275 5000.0 837492

# Fix ice atoms in place
#
velocity ice set 0.0 0.0 0.0
fix 4 ice setforce 0.0 0.0 0.0

# Run 1.0 ns equilibration of water
#
dump 1 all atom 1000 eq.all.coexist_275K_-1000atm_mW.dump
run 100000
  update every 1 steps, delay 0 steps, check yes
Step Temp Press Volume TotEng KinEng PotEng c_1[4]
0    124.35001   -2275.8632    270403.77   -85927.055    3152.1247    -89079.18            0
Averages over the last 1001 of 2001 rows, steps 50000 to 100000:
Temp Press Volume TotEng KinEng PotEng c_1[4]
275.715 -1000.24 272002 -79122.3 6989.05 -86111.3 4101.91
Loop time of 342.856 on 6 procs for 100000 steps with 8505 atoms

# Create data file for import to other simulations
#
write_data data.coexist_275K_-1000atm_mW
System init for write_data ...
