# Create simulation box of size 50 x 50 x 50 Angstrom
#
lattice	            sc 1
Lattice spacing in x,y,z = 1.0000000 1.0000000 1.0000000
region 	            all block 0 53.4 0.4326958126211089.0 50.47442418738036.0 0.4326958126211089.0 50.47442418738036.0 units box
create_box          1 all
Created orthogonal box = (0.0000000 0.43269581 0.43269581) to (53.400000 50.474424 50.474424)

# fill box with 4175 randomly distributed atoms
#
create_atoms        1 random 4608 63782 all
Created 4608 atoms
mass                1 18.015

# Define potential
#
pair_style          sw
pair_coeff          * * /data/emrosky-sim/Freezing_Simulations/Melting/mW_fancy/mW.sw mW
Reading sw potential file /data/emrosky-sim/Freezing_Simulations/Melting/mW_fancy/mW.sw with DATE: 2019-02-27

# Run minimization
#
minimize            1.0e-8 1.0e-8 10000 1000
  update every 1 steps, delay 0 steps, check yes
Step Temp E_pair E_mol TotEng Press
0            0    4780530.1            0    4780530.1    3415989.7
Loop time of 2.20915 on 6 procs for 687 steps with 4608 atoms

Minimization stats:
  Stopping criterion = max force evaluations
  Energy initial, next-to-last, final =
  Force two-norm initial, final = 1.0951389e+08 1.9852904
  Force max component initial, final = 57786616.0 0.40887332
  Final line search alpha, max atom move = 0.085865022 0.035107917
  Iterations, force evaluations = 687 1000

# Add velocity/set timestep
#
velocity            all create 272 120598 rot yes dist gaussian
timestep            5.0

# Define output
#
compute	            1 all msd
thermo	            100
thermo_style        custom step temp press vol etotal ke pe c_1[4] density

# Neighbor lists
#
neigh_modify        delay 0 every 1 check yes

# Set fixes
#
fix                 1 all momentum 10 linear 1 1 1 rescale
fix                 2 all nve
fix                 3 all temp/csvr 272 272 500.0 928347
fix                 4 all press/berendsen iso 1 1 1000.0 modulus 20000

# Run 0.5 ns equilibration
#
dump                1 all custom 1000 eq.liq_272K_1atm_mW.dump id type x y z vx vy vz
run                 100000
Step Temp Press Volume TotEng KinEng PotEng c_1[4] Density
687          272    1760.1213    133722.92   -48479.042     3735.265   -52214.307 4.8750102e-34    1.0308369
Averages over the last 501 of 1002 rows, steps 50700 to 100687:
Temp Press Volume TotEng KinEng PotEng c_1[4] Density
271.475 12.6319 137554 -43342.6 3728.06 -47070.7 1042.25 1.00213
Loop time of 189.615 on 6 procs for 100000 steps with 4608 atoms

undump              1
unfix               2
unfix               3
unfix               4

################################################
#######         Run Simulation         #########
################################################

reset_timestep      0
log                 log.run_liq_272K_1atm_mW
