read_data data.ice_292K_-500atm_ML group ice
Reading data file ...
  orthogonal box = (-0.04047489 -0.03597768 -0.03597768) to (57.310985 50.943098 50.943098)
  reading atoms ...
  4608 atoms
  reading velocities ...
  4608 velocities
read_data data.liq_292K_-500atm_ML add append shift 50.9430976801229 0.0359776801220235 0.0359776801220235 group water
Reading data file ...
  orthogonal box = (-0.04047489 -0.10990933 -0.10990933) to (104.45341 51.088985 51.088985)
  reading atoms ...
  4608 atoms
  reading velocities ...
  4608 velocities

write_data data.icewater_test
System init for write_data ...

# Define potential
#
pair_style sw
pair_coeff * * /data/emrosky-sim/Freezing_Simulations/Melting/MLmW_fancy/ML_mW.sw mW
Reading sw potential file /data/emrosky-sim/Freezing_Simulations/Melting/MLmW_fancy/ML_mW.sw with DATE: 2019-02-27

# Delete water and ice atoms that are overlapping
#
delete_atoms overlap 2.5 water ice
System init for delete_atoms ...
  update every 1 steps, delay 10 steps, check yes
Deleted 686 atoms, new total = 8530

# set timestep
#
timestep 10.0

# Define output
#
compute 1 all msd
thermo 50
thermo_style custom step temp press vol etotal ke pe c_1[4]

# Neighbor lists
#
neigh_modify delay 0 every 1 check yes

# Set fixes
#
fix 1 all momentum 10 linear 1 1 1 rescale
fix 2 all nph iso -500 -500 10000.0
fix 3 all temp/csvr 292 292 5000.0 837492

# Fix ice atoms in place
#
velocity ice set 0.0 0.0 0.0
fix 4 ice setforce 0.0 0.0 0.0

# Run 1.0 ns equilibration of water
#
dump 1 all atom 1000 eq.all.coexist_292K_-500atm_ML.dump
run 100000
  update every 1 steps, delay 0 steps, check yes
Step Temp Press Volume TotEng KinEng PotEng c_1[4]
0    134.69574   -1072.1989    273912.62   -83980.941    3424.4142   -87405.355            0
Averages over the last 1001 of 2001 rows, steps 50000 to 100000:
Temp Press Volume TotEng KinEng PotEng c_1[4]
292.785 -501.271 276474 -76498.6 7443.56 -83942.2 3724.63
Loop time of 250.387 on 6 procs for 100000 steps with 8530 atoms

# Create data file for import to other simulations
#
write_data data.coexist_292K_-500atm_ML
System init for write_data ...
