read_data data.ice_294K_-1000atm_ML group ice
Reading data file ...
  orthogonal box = (-0.10679652 -0.094930239 -0.094930239) to (57.377307 51.002050 51.002050)
  reading atoms ...
  4608 atoms
  reading velocities ...
  4608 velocities
read_data data.liq_294K_-1000atm_ML add append shift 51.0020502394764 0.0949302394748344 0.0949302394748344 group water
Reading data file ...
  orthogonal box = (-0.10679652 -0.1955676 -0.1955676) to (104.61977 51.292548 51.292548)
  reading atoms ...
  4608 atoms
  reading velocities ...
  4608 velocities

write_data data.icewater_test
System init for write_data ...

# Define potential
#
pair_style sw
pair_coeff * * /data/emrosky-sim/Freezing_Simulations/Melting/MLmW_fancy/ML_mW.sw mW
Reading sw potential file /data/emrosky-sim/Freezing_Simulations/Melting/MLmW_fancy/ML_mW.sw with DATE: 2019-02-27

# Delete water and ice atoms that are overlapping
#
delete_atoms overlap 2.5 water ice
System init for delete_atoms ...
  update every 1 steps, delay 10 steps, check yes
Deleted 690 atoms, new total = 8526

# set timestep
#
timestep 10.0

# Define output
#
compute 1 all msd
thermo 50
thermo_style custom step temp press vol etotal ke pe c_1[4]

# Neighbor lists
#
neigh_modify delay 0 every 1 check yes

# Set fixes
#
fix 1 all momentum 10 linear 1 1 1 rescale
fix 2 all nph iso -1000 -1000 10000.0
fix 3 all temp/csvr 294 294 5000.0 837492

# Fix ice atoms in place
#
velocity ice set 0.0 0.0 0.0
fix 4 ice setforce 0.0 0.0 0.0

# Run 1.0 ns equilibration of water
#
dump 1 all atom 1000 eq.all.coexist_294K_-1000atm_ML.dump
run 100000
  update every 1 steps, delay 0 steps, check yes
Step Temp Press Volume TotEng KinEng PotEng c_1[4]
0    137.56797   -1659.5873    277632.86   -83258.384    3495.7954    -86754.18            0
Averages over the last 1001 of 2001 rows, steps 50000 to 100000:
Temp Press Volume TotEng KinEng PotEng c_1[4]
294.751 -1005.95 279562 -75663 7490.04 -83153.1 3852.08
Loop time of 246.848 on 6 procs for 100000 steps with 8526 atoms

# Create data file for import to other simulations
#
write_data data.coexist_294K_-1000atm_ML
System init for write_data ...
