# Create simulation box of size 50 x 50 x 50 Angstrom
#
lattice	            sc 1
Lattice spacing in x,y,z = 1.0000000 1.0000000 1.0000000
region 	            all block 0 53.4 -0.09493023947483437.0 51.002050239476375.0 -0.09493023947483437.0 51.002050239476375.0 units box
create_box          1 all
Created orthogonal box = (0.0000000 -0.094930239 -0.094930239) to (53.400000 51.002050 51.002050)

# fill box with 4175 randomly distributed atoms
#
create_atoms        1 random 4608 63782 all
Created 4608 atoms
mass                1 18.015

# Define potential
#
pair_style          sw
pair_coeff          * * /data/emrosky-sim/Freezing_Simulations/Melting/MLmW_fancy/ML_mW.sw mW
Reading sw potential file /data/emrosky-sim/Freezing_Simulations/Melting/MLmW_fancy/ML_mW.sw with DATE: 2019-02-27

# Run minimization
#
minimize            1.0e-8 1.0e-8 10000 1000
  update every 1 steps, delay 0 steps, check yes
Step Temp E_pair E_mol TotEng Press
0            0    7194735.9            0    7194735.9    4904705.8
Loop time of 1.23226 on 6 procs for 648 steps with 4608 atoms

Minimization stats:
  Stopping criterion = max force evaluations
  Energy initial, next-to-last, final =
  Force two-norm initial, final = 1.6520334e+08 4.3786679
  Force max component initial, final = 87961777.0 1.2299506
  Final line search alpha, max atom move = 0.077046141 0.094762945
  Iterations, force evaluations = 648 1000

# Add velocity/set timestep
#
velocity            all create 294 120598 rot yes dist gaussian
timestep            5.0

# Define output
#
compute	            1 all msd
thermo	            100
thermo_style        custom step temp press vol etotal ke pe c_1[4] density

# Neighbor lists
#
neigh_modify        delay 0 every 1 check yes

# Set fixes
#
fix                 1 all momentum 10 linear 1 1 1 rescale
fix                 2 all nve
fix                 3 all temp/csvr 294 294 500.0 928347
fix                 4 all press/berendsen iso -1000 -1000 1000.0 modulus 20000

# Run 0.5 ns equilibration
#
dump                1 all custom 1000 eq.liq_294K_-1000atm_ML.dump id type x y z vx vy vz
run                 100000
Step Temp Press Volume TotEng KinEng PotEng c_1[4] Density
648          294    826.58909    139422.14   -45856.204     4037.382   -49893.586 2.4556025e-33   0.98869893
Averages over the last 501 of 1002 rows, steps 50700 to 100648:
Temp Press Volume TotEng KinEng PotEng c_1[4] Density
293.435 -993.935 142776 -40924.5 4029.63 -44954.1 823.371 0.965482
Loop time of 116.664 on 6 procs for 100000 steps with 4608 atoms

undump              1
unfix               2
unfix               3
unfix               4

################################################
#######         Run Simulation         #########
################################################

reset_timestep      0
log                 log.run_liq_294K_-1000atm_ML
