# Create simulation box of size 50 x 50 x 50 Angstrom
#
lattice	            sc 1
Lattice spacing in x,y,z = 1.0000000 1.0000000 1.0000000
region 	            all block 0 53.4 0.42334591252962994.0 50.48377408746791.0 0.42334591252962994.0 50.48377408746791.0 units box
create_box          1 all
Created orthogonal box = (0.0000000 0.42334591 0.42334591) to (53.400000 50.483774 50.483774)

# fill box with 4175 randomly distributed atoms
#
create_atoms        1 random 4608 63782 all
Created 4608 atoms
mass                1 18.015

# Define potential
#
pair_style          sw
pair_coeff          * * /data/emrosky-sim/Freezing_Simulations/Melting/mW_fancy/mW.sw mW
Reading sw potential file /data/emrosky-sim/Freezing_Simulations/Melting/mW_fancy/mW.sw with DATE: 2019-02-27

# Run minimization
#
minimize            1.0e-8 1.0e-8 10000 1000
  update every 1 steps, delay 0 steps, check yes
Step Temp E_pair E_mol TotEng Press
0            0      4776008            0      4776008    3410192.3
Loop time of 2.1755 on 6 procs for 690 steps with 4608 atoms

Minimization stats:
  Stopping criterion = max force evaluations
  Energy initial, next-to-last, final =
  Force two-norm initial, final = 1.0939807e+08 2.6971503
  Force max component initial, final = 57734873.0 0.57341179
  Final line search alpha, max atom move = 0.10653305 0.061087309
  Iterations, force evaluations = 690 1000

# Add velocity/set timestep
#
velocity            all create 276 120598 rot yes dist gaussian
timestep            5.0

# Define output
#
compute	            1 all msd
thermo	            100
thermo_style        custom step temp press vol etotal ke pe c_1[4] density

# Neighbor lists
#
neigh_modify        delay 0 every 1 check yes

# Set fixes
#
fix                 1 all momentum 10 linear 1 1 1 rescale
fix                 2 all nve
fix                 3 all temp/csvr 276 276 500.0 928347
fix                 4 all press/berendsen iso 1 1 1000.0 modulus 20000

# Run 0.5 ns equilibration
#
dump                1 all custom 1000 eq.liq_276K_1atm_mW.dump id type x y z vx vy vz
run                 100000
Step Temp Press Volume TotEng KinEng PotEng c_1[4] Density
690          276    1551.3814    133822.88   -48457.013    3790.1954   -52247.208            0    1.0300669
Averages over the last 501 of 1002 rows, steps 50700 to 100690:
Temp Press Volume TotEng KinEng PotEng c_1[4] Density
275.432 0.305585 137627 -43185.4 3782.4 -46967.8 1075.6 1.0016
Loop time of 188.652 on 6 procs for 100000 steps with 4608 atoms

undump              1
unfix               2
unfix               3
unfix               4

################################################
#######         Run Simulation         #########
################################################

reset_timestep      0
log                 log.run_liq_276K_1atm_mW
