# Create simulation box of size 50 x 50 x 50 Angstrom
#
lattice	            sc 1
Lattice spacing in x,y,z = 1.0000000 1.0000000 1.0000000
region 	            all block 0 53.4 0.416788910344156.0 50.490331089657474.0 0.416788910344156.0 50.490331089657474.0 units box
create_box          1 all
Created orthogonal box = (0.0000000 0.41678891 0.41678891) to (53.400000 50.490331 50.490331)

# fill box with 4175 randomly distributed atoms
#
create_atoms        1 random 4608 63782 all
Created 4608 atoms
mass                1 18.015

# Define potential
#
pair_style          sw
pair_coeff          * * /data/emrosky-sim/Freezing_Simulations/Melting/mW_fancy/mW.sw mW
Reading sw potential file /data/emrosky-sim/Freezing_Simulations/Melting/mW_fancy/mW.sw with DATE: 2019-02-27

# Run minimization
#
minimize            1.0e-8 1.0e-8 10000 1000
  update every 1 steps, delay 0 steps, check yes
Step Temp E_pair E_mol TotEng Press
0            0      4772840            0      4772840    3406133.6
Loop time of 2.16342 on 6 procs for 685 steps with 4608 atoms

Minimization stats:
  Stopping criterion = max force evaluations
  Energy initial, next-to-last, final =
  Force two-norm initial, final = 1.0931692e+08 1.9004328
  Force max component initial, final = 57698611.0 0.46701987
  Final line search alpha, max atom move = 0.22951786 0.1071894
  Iterations, force evaluations = 685 1001

# Add velocity/set timestep
#
velocity            all create 273 120598 rot yes dist gaussian
timestep            5.0

# Define output
#
compute	            1 all msd
thermo	            100
thermo_style        custom step temp press vol etotal ke pe c_1[4] density

# Neighbor lists
#
neigh_modify        delay 0 every 1 check yes

# Set fixes
#
fix                 1 all momentum 10 linear 1 1 1 rescale
fix                 2 all nve
fix                 3 all temp/csvr 273 273 500.0 928347
fix                 4 all press/berendsen iso 1 1 1000.0 modulus 20000

# Run 0.5 ns equilibration
#
dump                1 all custom 1000 eq.liq_273K_1atm_mW.dump id type x y z vx vy vz
run                 100000
Step Temp Press Volume TotEng KinEng PotEng c_1[4] Density
685          273    1847.1303       133893   -48536.774    3748.9976   -52285.771            0    1.0295274
Averages over the last 501 of 1002 rows, steps 50700 to 100685:
Temp Press Volume TotEng KinEng PotEng c_1[4] Density
272.33 0.812451 137530 -43307.1 3739.8 -47046.9 1005.37 1.0023
Loop time of 190.363 on 6 procs for 100000 steps with 4608 atoms

undump              1
unfix               2
unfix               3
unfix               4

################################################
#######         Run Simulation         #########
################################################

reset_timestep      0
log                 log.run_liq_273K_1atm_mW
