# Create simulation box of size 50 x 50 x 50 Angstrom
#
lattice	            sc 1
Lattice spacing in x,y,z = 1.0000000 1.0000000 1.0000000
region 	            all block 0 53.4 -0.054393159945711034.0 50.961513159944275.0 -0.054393159945711034.0 50.961513159944275.0 units box
create_box          1 all
Created orthogonal box = (0.0000000 -0.05439316 -0.05439316) to (53.400000 50.961513 50.961513)

# fill box with 4175 randomly distributed atoms
#
create_atoms        1 random 4608 63782 all
Created 4608 atoms
mass                1 18.015

# Define potential
#
pair_style          sw
pair_coeff          * * /data/emrosky-sim/Freezing_Simulations/Melting/MLmW_fancy/ML_mW.sw mW
Reading sw potential file /data/emrosky-sim/Freezing_Simulations/Melting/MLmW_fancy/ML_mW.sw with DATE: 2019-02-27

# Run minimization
#
minimize            1.0e-8 1.0e-8 10000 1000
  update every 1 steps, delay 0 steps, check yes
Step Temp E_pair E_mol TotEng Press
0            0    7223729.4            0    7223729.4    4940199.3
Loop time of 1.24633 on 6 procs for 662 steps with 4608 atoms

Minimization stats:
  Stopping criterion = max force evaluations
  Energy initial, next-to-last, final =
  Force two-norm initial, final = 1.6596223e+08 3.4550420
  Force max component initial, final = 88306369.0 0.89119589
  Final line search alpha, max atom move = 0.070532543 0.062858313
  Iterations, force evaluations = 662 1000

# Add velocity/set timestep
#
velocity            all create 292 120598 rot yes dist gaussian
timestep            5.0

# Define output
#
compute	            1 all msd
thermo	            100
thermo_style        custom step temp press vol etotal ke pe c_1[4] density

# Neighbor lists
#
neigh_modify        delay 0 every 1 check yes

# Set fixes
#
fix                 1 all momentum 10 linear 1 1 1 rescale
fix                 2 all nve
fix                 3 all temp/csvr 292 292 500.0 928347
fix                 4 all press/berendsen iso -500 -500 1000.0 modulus 20000

# Run 0.5 ns equilibration
#
dump                1 all custom 1000 eq.liq_292K_-500atm_ML.dump id type x y z vx vy vz
run                 100000
Step Temp Press Volume TotEng KinEng PotEng c_1[4] Density
662          292    1104.4916    138980.05   -45904.979    4009.9168   -49914.896 1.6878323e-33    0.9918439
Averages over the last 501 of 1002 rows, steps 50700 to 100662:
Temp Press Volume TotEng KinEng PotEng c_1[4] Density
291.322 -510.256 140188 -41049.9 4000.61 -45050.5 858.899 0.9833
Loop time of 116.656 on 6 procs for 100000 steps with 4608 atoms

undump              1
unfix               2
unfix               3
unfix               4

################################################
#######         Run Simulation         #########
################################################

reset_timestep      0
log                 log.run_liq_292K_-500atm_ML
