read_data data.ice_293K_1atm_ML group ice
Reading data file ...
  orthogonal box = (0.00939857 0.0083542844 0.0083542844) to (57.261111 50.898766 50.898766)
  reading atoms ...
  4608 atoms
  reading velocities ...
  4608 velocities
read_data data.liq_293K_1atm_ML add append shift 50.8987657155523 -0.00835428444437269 -0.00835428444437269 group water
Reading data file ...
  orthogonal box = (0.00939857 0.0083542844 0.0083542844) to (104.26455 50.898766 50.898766)
  reading atoms ...
  4608 atoms
  reading velocities ...
  4608 velocities

write_data data.icewater_test
System init for write_data ...

# Define potential
#
pair_style sw
pair_coeff * * /data/emrosky-sim/Freezing_Simulations/Melting/MLmW_fancy/ML_mW.sw mW
Reading sw potential file /data/emrosky-sim/Freezing_Simulations/Melting/MLmW_fancy/ML_mW.sw with DATE: 2019-02-27

# Delete water and ice atoms that are overlapping
#
delete_atoms overlap 2.5 water ice
System init for delete_atoms ...
  update every 1 steps, delay 10 steps, check yes
Deleted 708 atoms, new total = 8508

# set timestep
#
timestep 10.0

# Define output
#
compute 1 all msd
thermo 50
thermo_style custom step temp press vol etotal ke pe c_1[4]

# Neighbor lists
#
neigh_modify delay 0 every 1 check yes

# Set fixes
#
fix 1 all momentum 10 linear 1 1 1 rescale
fix 2 all nph iso 1 1 10000.0
fix 3 all temp/csvr 293 293 5000.0 837492

# Fix ice atoms in place
#
velocity ice set 0.0 0.0 0.0
fix 4 ice setforce 0.0 0.0 0.0

# Run 1.0 ns equilibration of water
#
dump 1 all atom 1000 eq.all.coexist_293K_1atm_ML.dump
run 100000
  update every 1 steps, delay 0 steps, check yes
Step Temp Press Volume TotEng KinEng PotEng c_1[4]
0    134.66783   -907.72533    270003.53   -84170.471    3414.8733   -87585.345            0
Averages over the last 1001 of 2001 rows, steps 50000 to 100000:
Temp Press Volume TotEng KinEng PotEng c_1[4]
293.873 -0.795967 274257 -76572.9 7451.95 -84024.9 3814.48
Loop time of 251.822 on 6 procs for 100000 steps with 8508 atoms

# Create data file for import to other simulations
#
write_data data.coexist_293K_1atm_ML
System init for write_data ...
