# Create simulation box of size 50 x 50 x 50 Angstrom
#
lattice	            sc 1
Lattice spacing in x,y,z = 1.0000000 1.0000000 1.0000000
region 	            all block 0 53.4 -0.018350680642512884.0 50.92547068064044.0 -0.018350680642512884.0 50.92547068064044.0 units box
create_box          1 all
Created orthogonal box = (0.0000000 -0.018350681 -0.018350681) to (53.400000 50.925471 50.925471)

# fill box with 4175 randomly distributed atoms
#
create_atoms        1 random 4608 63782 all
Created 4608 atoms
mass                1 18.015

# Define potential
#
pair_style          sw
pair_coeff          * * ../ML_mW.sw mW
Reading sw potential file ../ML_mW.sw with DATE: 2019-02-27

# Run minimization
#
minimize            1.0e-8 1.0e-8 10000 1000
  update every 1 steps, delay 0 steps, check yes
Step Temp E_pair E_mol TotEng Press
0            0    7249632.7            0    7249632.7    4972012.5
Loop time of 1.24403 on 6 procs for 648 steps with 4608 atoms

Minimization stats:
  Stopping criterion = max force evaluations
  Energy initial, next-to-last, final =
  Force two-norm initial, final = 1.6664008e+08 4.5666655
  Force max component initial, final = 88613796.0 1.0595573
  Final line search alpha, max atom move = 0.05262531 0.055759529
  Iterations, force evaluations = 648 1001

# Add velocity/set timestep
#
velocity            all create 288 120598 rot yes dist gaussian
timestep            5.0

# Define output
#
compute	            1 all msd
thermo	            100
thermo_style        custom step temp press vol etotal ke pe c_1[4] density

# Neighbor lists
#
neigh_modify        delay 0 every 1 check yes

# Set fixes
#
fix                 1 all momentum 10 linear 1 1 1 rescale
fix                 2 all nve
fix                 3 all temp/csvr 288 288 500.0 928347
fix                 4 all press/berendsen iso 1 1 1000.0 modulus 20000

# Run 0.5 ns equilibration
#
dump                1 all custom 1000 eq.liq_288K_1atm_ML.dump id type x y z vx vy vz
run                 100000
Step Temp Press Volume TotEng KinEng PotEng c_1[4] Density
648          288    864.86175    138587.57   -45885.275    3954.9865   -49840.261 3.4324957e-33   0.99465278
Averages over the last 501 of 1002 rows, steps 50700 to 100648:
Temp Press Volume TotEng KinEng PotEng c_1[4] Density
287.501 -0.949013 138131 -41233.5 3948.13 -45181.7 896.467 0.997943
Loop time of 120.903 on 6 procs for 100000 steps with 4608 atoms

undump              1
unfix               2
unfix               3
unfix               4

################################################
#######         Run Simulation         #########
################################################

reset_timestep      0
log                 log.run_liq_288K_1atm_ML
