read_data data.ice_288K_1atm_ML group ice
Reading data file ...
  orthogonal box = (-0.020644516 -0.018350681 -0.018350681) to (57.291155 50.925471 50.925471)
  reading atoms ...
  4608 atoms
  reading velocities ...
  4608 velocities
read_data data.liq_288K_1atm_ML add append shift 50.9254706806404 0.0183506806425129 0.0183506806425129 group water
Reading data file ...
  orthogonal box = (-0.020644516 -0.018350681 -0.018350681) to (104.32457 50.925471 50.925471)
  reading atoms ...
  4608 atoms
  reading velocities ...
  4608 velocities

write_data data.icewater_test
System init for write_data ...

# Define potential
#
pair_style sw
pair_coeff * * ../ML_mW.sw mW
Reading sw potential file ../ML_mW.sw with DATE: 2019-02-27

# Delete water and ice atoms that are overlapping
#
delete_atoms overlap 2.5 water ice
System init for delete_atoms ...
  update every 1 steps, delay 10 steps, check yes
Deleted 676 atoms, new total = 8540

# set timestep
#
timestep 10.0

# Define output
#
compute 1 all msd
thermo 50
thermo_style custom step temp press vol etotal ke pe c_1[4]

# Neighbor lists
#
neigh_modify delay 0 every 1 check yes

# Set fixes
#
fix 1 all momentum 10 linear 1 1 1 rescale
fix 2 all nph iso 1 1 10000.0
fix 3 all temp/csvr 288 288 5000.0 837492

# Fix ice atoms in place
#
velocity ice set 0.0 0.0 0.0
fix 4 ice setforce 0.0 0.0 0.0

# Run 1.0 ns equilibration of water
#
dump 1 all atom 1000 eq.all.coexist_288K_1atm_ML.dump
run 100000
  update every 1 steps, delay 0 steps, check yes
Step Temp Press Volume TotEng KinEng PotEng c_1[4]
0    133.75969   -317.33767    270804.31   -84497.251    3404.6036   -87901.855            0
Averages over the last 1001 of 2001 rows, steps 50000 to 100000:
Temp Press Volume TotEng KinEng PotEng c_1[4]
288.827 3.6666 274918 -77111.6 7351.56 -84463.1 3603.32
Loop time of 253.821 on 6 procs for 100000 steps with 8540 atoms

# Create data file for import to other simulations
#
write_data data.coexist_288K_1atm_ML
System init for write_data ...
