# Create simulation box of size 50 x 50 x 50 Angstrom
#
lattice	            sc 1
Lattice spacing in x,y,z = 1.0000000 1.0000000 1.0000000
region 	            all block 0 50 0 50 0 50 units box
create_box          1 all
Created orthogonal box = (0.0000000 0.0000000 0.0000000) to (50.000000 50.000000 50.000000)

# fill box with 4169 randomly distributed atoms
#
create_atoms        1 random 4169 63782 all
Created 4169 atoms
mass                1 18.015

# Define potential
#
pair_style          sw
pair_coeff          * * ../ML.sw mW
Reading sw potential file ../ML.sw with DATE: 2019-02-27

# Run minimization
#
minimize            1.0e-8 1.0e-8 10000 1000
  update every 1 steps, delay 0 steps, check yes
Step Temp E_pair E_mol TotEng Press
0            0    7783778.6            0    7783778.6    5891538.7
Loop time of 2.13245 on 4 procs for 640 steps with 4169 atoms

Minimization stats:
  Stopping criterion = max force evaluations
  Energy initial, next-to-last, final =
  Force two-norm initial, final = 2.0191929e+08 3.8745506
  Force max component initial, final = 1.0948746e+08 1.0618003
  Final line search alpha, max atom move = 0.061176386 0.064957105
  Iterations, force evaluations = 640 1000

# Add velocity/set timestep
#
velocity            all create 294 120598 rot yes dist gaussian
timestep            5.0

# Define output
#
compute	            1 all msd
thermo	            100
thermo_style        custom step temp press vol etotal ke pe c_1[4] density

# Neighbor lists
#
neigh_modify        delay 0 every 1 check yes

# Set fixes
#
fix                 1 all momentum 10 linear 1 1 1 rescale
fix                 2 all nve
fix                 3 all temp/csvr 294 294 500.0 928347
fix                 4 all press/berendsen iso -500 -500 1000.0 modulus 20000

# Run 0.5 ns equilibration
#
dump                1 all custom 1000 eq.liquid_295K_500atm_ML.dump id type x y z vx vy vz
run                 100000
Step Temp Press Volume TotEng KinEng PotEng c_1[4] Density
640          294    1269.7673       125000   -41436.656    3652.6608   -45089.317 1.8478579e-33   0.99771203
Averages over the last 501 of 1002 rows, steps 50700 to 100640:
Temp Press Volume TotEng KinEng PotEng c_1[4] Density
293.717 -507.694 126922 -37054.9 3649.14 -40704 901.343 0.982609
Loop time of 200.169 on 4 procs for 100000 steps with 4169 atoms

undump              1
unfix               2
unfix               3
unfix               4

################################################
#######         Run Simulation         #########
################################################

reset_timestep      0
log                 log.run_liquid_295K_500atm_ML
