# Create simulation box of size 50 x 50 x 50 Angstrom
#
lattice	            sc 1
Lattice spacing in x,y,z = 1.0000000 1.0000000 1.0000000
region 	            all block 0 53.4 0.4127979664983705.0 50.49432203350081.0 0.4127979664983705.0 50.49432203350081.0 units box
create_box          1 all
Created orthogonal box = (0.0000000 0.41279797 0.41279797) to (53.400000 50.494322 50.494322)

# fill box with 4175 randomly distributed atoms
#
create_atoms        1 random 4608 63782 all
Created 4608 atoms
mass                1 18.015

# Define potential
#
pair_style          sw
pair_coeff          * * /data/emrosky-sim/Freezing_Simulations/Melting/mW_fancy/mW.sw mW
Reading sw potential file /data/emrosky-sim/Freezing_Simulations/Melting/mW_fancy/mW.sw with DATE: 2019-02-27

# Run minimization
#
minimize            1.0e-8 1.0e-8 10000 1000
  update every 1 steps, delay 0 steps, check yes
Step Temp E_pair E_mol TotEng Press
0            0    4770913.1            0    4770913.1      3403666
Loop time of 2.17317 on 6 procs for 680 steps with 4608 atoms

Minimization stats:
  Stopping criterion = max force evaluations
  Energy initial, next-to-last, final =
  Force two-norm initial, final = 1.0926756e+08 4.3174047
  Force max component initial, final = 57676550.0 0.9552613
  Final line search alpha, max atom move = 0.036771899 0.035126772
  Iterations, force evaluations = 680 1001

# Add velocity/set timestep
#
velocity            all create 275 120598 rot yes dist gaussian
timestep            5.0

# Define output
#
compute	            1 all msd
thermo	            100
thermo_style        custom step temp press vol etotal ke pe c_1[4] density

# Neighbor lists
#
neigh_modify        delay 0 every 1 check yes

# Set fixes
#
fix                 1 all momentum 10 linear 1 1 1 rescale
fix                 2 all nve
fix                 3 all temp/csvr 275 275 500.0 928347
fix                 4 all press/berendsen iso -500 -500 1000.0 modulus 20000

# Run 0.5 ns equilibration
#
dump                1 all custom 1000 eq.liq_275K_-500atm_mW.dump id type x y z vx vy vz
run                 100000
Step Temp Press Volume TotEng KinEng PotEng c_1[4] Density
680          275    1658.3546    133935.69   -48441.387    3776.4628   -52217.849 1.9667222e-33    1.0291993
Averages over the last 501 of 1002 rows, steps 50700 to 100680:
Temp Press Volume TotEng KinEng PotEng c_1[4] Density
274.399 -508.314 139027 -43177.1 3768.21 -46945.3 1024.84 0.991512
Loop time of 182.303 on 6 procs for 100000 steps with 4608 atoms

undump              1
unfix               2
unfix               3
unfix               4

################################################
#######         Run Simulation         #########
################################################

reset_timestep      0
log                 log.run_liq_275K_-500atm_mW
