read_data data.ice_275K_-500atm_mW group ice
Reading data file ...
  orthogonal box = (0.46439771 0.41279797 0.41279797) to (56.806112 50.494322 50.494322)
  reading atoms ...
  4608 atoms
  reading velocities ...
  4608 velocities
read_data data.liq_275K_-500atm_mW add append shift 50.4943220335008 -0.412797966498371 -0.412797966498371 group water
Reading data file ...
  orthogonal box = (0.46439771 -0.30907551 -0.30907551) to (104.17701 50.494322 50.494322)
  reading atoms ...
  4608 atoms
  reading velocities ...
  4608 velocities

write_data data.icewater_test
System init for write_data ...

# Define potential
#
pair_style sw
pair_coeff * * /data/emrosky-sim/Freezing_Simulations/Melting/mW_fancy/mW.sw mW
Reading sw potential file /data/emrosky-sim/Freezing_Simulations/Melting/mW_fancy/mW.sw with DATE: 2019-02-27

# Delete water and ice atoms that are overlapping
#
delete_atoms overlap 2.5 water ice
System init for delete_atoms ...
  update every 1 steps, delay 10 steps, check yes
Deleted 709 atoms, new total = 8507

# set timestep
#
timestep 10.0

# Define output
#
compute 1 all msd
thermo 50
thermo_style custom step temp press vol etotal ke pe c_1[4]

# Neighbor lists
#
neigh_modify delay 0 every 1 check yes

# Set fixes
#
fix 1 all momentum 10 linear 1 1 1 rescale
fix 2 all nph iso -500 -500 10000.0
fix 3 all temp/csvr 275 275 5000.0 837492

# Fix ice atoms in place
#
velocity ice set 0.0 0.0 0.0
fix 4 ice setforce 0.0 0.0 0.0

# Run 1.0 ns equilibration of water
#
dump 1 all atom 1000 eq.all.coexist_275K_-500atm_mW.dump
run 100000
  update every 1 steps, delay 0 steps, check yes
Step Temp Press Volume TotEng KinEng PotEng c_1[4]
0     126.5325   -1786.6835    267680.72   -86215.555    3208.2025   -89423.757            0
Averages over the last 1001 of 2001 rows, steps 50000 to 100000:
Temp Press Volume TotEng KinEng PotEng c_1[4]
275.673 -501.07 269062 -79486.2 6989.62 -86475.8 3931.98
Loop time of 347.495 on 6 procs for 100000 steps with 8507 atoms

# Create data file for import to other simulations
#
write_data data.coexist_275K_-500atm_mW
System init for write_data ...
