read_data data.ice_294K_-1000atm_ML group ice
Reading data file ...
  orthogonal box = (-0.08788457 -0.078119618 -0.078119618) to (57.358395 50.985240 50.985240)
  reading atoms ...
  4608 atoms
  reading velocities ...
  4608 velocities
read_data data.liq_294K_-1000atm_ML add append shift 50.9852396175786 0.0781196175815673 0.0781196175815673 group water
Reading data file ...
  orthogonal box = (-0.08788457 -0.18716788 -0.18716788) to (104.66671 51.250527 51.250527)
  reading atoms ...
  4608 atoms
  reading velocities ...
  4608 velocities

write_data data.icewater_test
System init for write_data ...

# Define potential
#
pair_style sw
pair_coeff * * /data/emrosky-sim/Freezing_Simulations/Melting/MLmW_fancy/ML_mW.sw mW
Reading sw potential file /data/emrosky-sim/Freezing_Simulations/Melting/MLmW_fancy/ML_mW.sw with DATE: 2019-02-27

# Delete water and ice atoms that are overlapping
#
delete_atoms overlap 2.5 water ice
System init for delete_atoms ...
  update every 1 steps, delay 10 steps, check yes
Deleted 697 atoms, new total = 8519

# set timestep
#
timestep 10.0

# Define output
#
compute 1 all msd
thermo 50
thermo_style custom step temp press vol etotal ke pe c_1[4]

# Neighbor lists
#
neigh_modify delay 0 every 1 check yes

# Set fixes
#
fix 1 all momentum 10 linear 1 1 1 rescale
fix 2 all nph iso -1000 -1000 10000.0
fix 3 all temp/csvr 294 294 5000.0 837492

# Fix ice atoms in place
#
velocity ice set 0.0 0.0 0.0
fix 4 ice setforce 0.0 0.0 0.0

# Run 1.0 ns equilibration of water
#
dump 1 all atom 1000 eq.all.coexist_294K_-1000atm_ML.dump
run 100000
  update every 1 steps, delay 0 steps, check yes
Step Temp Press Volume TotEng KinEng PotEng c_1[4]
0    136.44293   -1463.3398    277163.52    -83308.86    3464.3597   -86773.219            0
Averages over the last 1001 of 2001 rows, steps 50000 to 100000:
Temp Press Volume TotEng KinEng PotEng c_1[4]
294.783 -1003.64 279890 -75617.9 7484.7 -83102.6 3819.97
Loop time of 243.437 on 6 procs for 100000 steps with 8519 atoms

# Create data file for import to other simulations
#
write_data data.coexist_294K_-1000atm_ML
System init for write_data ...
