# Create simulation box of size 50 x 50 x 50 Angstrom
#
lattice	            sc 1
Lattice spacing in x,y,z = 1.0000000 1.0000000 1.0000000
region 	            all block 0 53.4 -0.07811961758156727.0 50.9852396175786.0 -0.07811961758156727.0 50.9852396175786.0 units box
create_box          1 all
Created orthogonal box = (0.0000000 -0.078119618 -0.078119618) to (53.400000 50.985240 50.985240)

# fill box with 4175 randomly distributed atoms
#
create_atoms        1 random 4608 63782 all
Created 4608 atoms
mass                1 18.015

# Define potential
#
pair_style          sw
pair_coeff          * * /data/emrosky-sim/Freezing_Simulations/Melting/MLmW_fancy/ML_mW.sw mW
Reading sw potential file /data/emrosky-sim/Freezing_Simulations/Melting/MLmW_fancy/ML_mW.sw with DATE: 2019-02-27

# Run minimization
#
minimize            1.0e-8 1.0e-8 10000 1000
  update every 1 steps, delay 0 steps, check yes
Step Temp E_pair E_mol TotEng Press
0            0    7206741.5            0    7206741.5    4919388.2
Loop time of 1.356 on 6 procs for 659 steps with 4608 atoms

Minimization stats:
  Stopping criterion = max force evaluations
  Energy initial, next-to-last, final =
  Force two-norm initial, final = 1.6551760e+08 5.1039210
  Force max component initial, final = 88104528.0 1.3836625
  Final line search alpha, max atom move = 0.042018262 0.058139092
  Iterations, force evaluations = 659 1001

# Add velocity/set timestep
#
velocity            all create 294 120598 rot yes dist gaussian
timestep            5.0

# Define output
#
compute	            1 all msd
thermo	            100
thermo_style        custom step temp press vol etotal ke pe c_1[4] density

# Neighbor lists
#
neigh_modify        delay 0 every 1 check yes

# Set fixes
#
fix                 1 all momentum 10 linear 1 1 1 rescale
fix                 2 all nve
fix                 3 all temp/csvr 294 294 500.0 928347
fix                 4 all press/berendsen iso -1000 -1000 1000.0 modulus 20000

# Run 0.5 ns equilibration
#
dump                1 all custom 1000 eq.liq_294K_-1000atm_ML.dump id type x y z vx vy vz
run                 100000
Step Temp Press Volume TotEng KinEng PotEng c_1[4] Density
659          294    919.42001    139238.72   -45823.716     4037.382   -49861.098 1.0448839e-34   0.99000132
Averages over the last 501 of 1002 rows, steps 50700 to 100659:
Temp Press Volume TotEng KinEng PotEng c_1[4] Density
293.43 -1003.22 142765 -40929.3 4029.55 -44958.8 828.001 0.965557
Loop time of 112.199 on 6 procs for 100000 steps with 4608 atoms

undump              1
unfix               2
unfix               3
unfix               4

################################################
#######         Run Simulation         #########
################################################

reset_timestep      0
log                 log.run_liq_294K_-1000atm_ML
