# Create simulation box of size 50 x 50 x 50 Angstrom
#
lattice	            sc 1
Lattice spacing in x,y,z = 1.0000000 1.0000000 1.0000000
region 	            all block 0 53.4 -0.04410537715746088.0 50.951225377157954.0 -0.04410537715746088.0 50.951225377157954.0 units box
create_box          1 all
Created orthogonal box = (0.0000000 -0.044105377 -0.044105377) to (53.400000 50.951225 50.951225)

# fill box with 4175 randomly distributed atoms
#
create_atoms        1 random 4608 63782 all
Created 4608 atoms
mass                1 18.015

# Define potential
#
pair_style          sw
pair_coeff          * * /data/emrosky-sim/Freezing_Simulations/Melting/MLmW_fancy/ML_mW.sw mW
Reading sw potential file /data/emrosky-sim/Freezing_Simulations/Melting/MLmW_fancy/ML_mW.sw with DATE: 2019-02-27

# Run minimization
#
minimize            1.0e-8 1.0e-8 10000 1000
  update every 1 steps, delay 0 steps, check yes
Step Temp E_pair E_mol TotEng Press
0            0    7231111.1            0    7231111.1    4949255.3
Loop time of 1.37531 on 6 procs for 658 steps with 4608 atoms

Minimization stats:
  Stopping criterion = max force evaluations
  Energy initial, next-to-last, final =
  Force two-norm initial, final = 1.6615542e+08 3.9316743
  Force max component initial, final = 88394020.0 0.924735
  Final line search alpha, max atom move = 0.049085759 0.045391319
  Iterations, force evaluations = 658 1001

# Add velocity/set timestep
#
velocity            all create 293 120598 rot yes dist gaussian
timestep            5.0

# Define output
#
compute	            1 all msd
thermo	            100
thermo_style        custom step temp press vol etotal ke pe c_1[4] density

# Neighbor lists
#
neigh_modify        delay 0 every 1 check yes

# Set fixes
#
fix                 1 all momentum 10 linear 1 1 1 rescale
fix                 2 all nve
fix                 3 all temp/csvr 293 293 500.0 928347
fix                 4 all press/berendsen iso -500 -500 1000.0 modulus 20000

# Run 0.5 ns equilibration
#
dump                1 all custom 1000 eq.liq_293K_-500atm_ML.dump id type x y z vx vy vz
run                 100000
Step Temp Press Volume TotEng KinEng PotEng c_1[4] Density
658          293    972.06271    138867.97    -45800.32    4023.6494   -49823.969            0   0.99264444
Averages over the last 501 of 1002 rows, steps 50700 to 100658:
Temp Press Volume TotEng KinEng PotEng c_1[4] Density
292.152 -501.53 140340 -41009.9 4012.01 -45021.9 884.251 0.982236
Loop time of 118.784 on 6 procs for 100000 steps with 4608 atoms

undump              1
unfix               2
unfix               3
unfix               4

################################################
#######         Run Simulation         #########
################################################

reset_timestep      0
log                 log.run_liq_293K_-500atm_ML
