# Create simulation box of size ~50 x 30 x 30 Angstrom
#
#variable	    lattice_constant equal 6.36339
region all block 0 50.8876695785036 0 31.8047934865673 0 31.8047934865673 units box
create_box 1 all
Created orthogonal box = (0.0000000 0.0000000 0.0000000) to (50.887670 31.804793 31.804793)

# fill box with randomly distributed atoms
#
create_atoms 1 random 1565 63782 all
Created 1565 atoms
mass 1 18.015
group water region all
1565 atoms in group water

# Define potential
#
pair_style sw
pair_coeff * * ML.sw mW
Reading sw potential file ML.sw with DATE: 2019-02-27

# Run minimization
#
minimize 1.0e-8 1.0e-8 10000 1000
  update every 1 steps, delay 0 steps, check yes
Step Temp E_pair E_mol TotEng Press
0            0     10711415            0     10711415     19261486
Loop time of 0.705893 on 4 procs for 621 steps with 1565 atoms

Minimization stats:
  Stopping criterion = max force evaluations
  Energy initial, next-to-last, final =
  Force two-norm initial, final = 5.7201717e+08 1.2900759
  Force max component initial, final = 3.2191948e+08 0.26222605
  Final line search alpha, max atom move = 0.17410473 0.045654796
  Iterations, force evaluations = 621 1000

# Add velocity/set timestep
#
velocity all create 284 120598 rot yes dist gaussian
timestep 10.0

# Define output
#
compute 1 all msd
thermo 50
thermo_style custom step temp press vol etotal ke pe c_1[4]

# Neighbor lists
#
neigh_modify delay 0 every 1 check yes

# Set fixes
#
fix 1 all momentum 10 linear 1 1 1 rescale
fix 2 all nve
fix 3 all temp/csvr 284 284 500.0 928347
fix 4 all press/berendsen iso 1 1 1000.0 modulus 20000

# Run 1 ns equilibration
#
dump 1 all atom 1000 eq.water.icewater_284K_1atm_ML.dump
run 100000
Step Temp Press Volume TotEng KinEng PotEng c_1[4]
621          284   -486.47564    51475.162   -15337.301    1324.0043   -16661.305            0
Averages over the last 1001 of 2002 rows, steps 50650 to 100621:
Temp Press Volume TotEng KinEng PotEng c_1[4]
283.321 -1.35517 46876.3 -14023.2 1320.84 -15344 1754.61
Loop time of 87.1268 on 4 procs for 100000 steps with 1565 atoms

undump 1
reset_timestep 0
#unfix 2
#unfix 3
#unfix 4

################################################
####### Insert Ice #########
################################################

log log.icewater_284K_1atm_ML.eq_all
