# Create simulation box of size 50 x 50 x 50 Angstrom
#
lattice	            sc 1
Lattice spacing in x,y,z = 1.0000000 1.0000000 1.0000000
region 	            all block 0 53.4 -0.017019439526677616.0 50.92413943952685.0 -0.017019439526677616.0 50.92413943952685.0 units box
create_box          1 all
Created orthogonal box = (0.0000000 -0.01701944 -0.01701944) to (53.400000 50.924139 50.924139)

# fill box with 4175 randomly distributed atoms
#
create_atoms        1 random 4608 63782 all
Created 4608 atoms
mass                1 18.015

# Define potential
#
pair_style          sw
pair_coeff          * * /data/emrosky-sim/Freezing_Simulations/Melting/MLmW_fancy/ML_mW.sw mW
Reading sw potential file /data/emrosky-sim/Freezing_Simulations/Melting/MLmW_fancy/ML_mW.sw with DATE: 2019-02-27

# Run minimization
#
minimize            1.0e-8 1.0e-8 10000 1000
  update every 1 steps, delay 0 steps, check yes
Step Temp E_pair E_mol TotEng Press
0            0    7250591.6            0    7250591.6    4973192.2
Loop time of 1.23584 on 6 procs for 650 steps with 4608 atoms

Minimization stats:
  Stopping criterion = max force evaluations
  Energy initial, next-to-last, final =
  Force two-norm initial, final = 1.6666517e+08 3.3554818
  Force max component initial, final = 88625170.0 1.2160726
  Final line search alpha, max atom move = 0.083721112 0.10181095
  Iterations, force evaluations = 650 1000

# Add velocity/set timestep
#
velocity            all create 287 120598 rot yes dist gaussian
timestep            5.0

# Define output
#
compute	            1 all msd
thermo	            100
thermo_style        custom step temp press vol etotal ke pe c_1[4] density

# Neighbor lists
#
neigh_modify        delay 0 every 1 check yes

# Set fixes
#
fix                 1 all momentum 10 linear 1 1 1 rescale
fix                 2 all nve
fix                 3 all temp/csvr 287 287 500.0 928347
fix                 4 all press/berendsen iso 1 1 1000.0 modulus 20000

# Run 0.5 ns equilibration
#
dump                1 all custom 1000 eq.liq_287K_1atm_ML.dump id type x y z vx vy vz
run                 100000
Step Temp Press Volume TotEng KinEng PotEng c_1[4] Density
650          287     1049.683    138573.09   -45926.012    3941.2539   -49867.266 1.6544796e-33   0.99475676
Averages over the last 501 of 1002 rows, steps 50700 to 100650:
Temp Press Volume TotEng KinEng PotEng c_1[4] Density
286.358 8.82714 138011 -41266.9 3932.44 -45199.4 884.781 0.998817
Loop time of 122.935 on 6 procs for 100000 steps with 4608 atoms

undump              1
unfix               2
unfix               3
unfix               4

################################################
#######         Run Simulation         #########
################################################

reset_timestep      0
log                 log.run_liq_287K_1atm_ML
