read_data data.ice_287K_1atm_ML group ice
Reading data file ...
  orthogonal box = (-0.019146869 -0.01701944 -0.01701944) to (57.289657 50.924139 50.924139)
  reading atoms ...
  4608 atoms
  reading velocities ...
  4608 velocities
read_data data.liq_287K_1atm_ML add append shift 50.9241394395268 0.0170194395266776 0.0170194395266776 group water
Reading data file ...
  orthogonal box = (-0.019146869 -0.01701944 -0.01701944) to (104.21047 50.938740 50.938740)
  reading atoms ...
  4608 atoms
  reading velocities ...
  4608 velocities

write_data data.icewater_test
System init for write_data ...

# Define potential
#
pair_style sw
pair_coeff * * /data/emrosky-sim/Freezing_Simulations/Melting/MLmW_fancy/ML_mW.sw mW
Reading sw potential file /data/emrosky-sim/Freezing_Simulations/Melting/MLmW_fancy/ML_mW.sw with DATE: 2019-02-27

# Delete water and ice atoms that are overlapping
#
delete_atoms overlap 2.5 water ice
System init for delete_atoms ...
  update every 1 steps, delay 10 steps, check yes
Deleted 683 atoms, new total = 8533

# set timestep
#
timestep 10.0

# Define output
#
compute 1 all msd
thermo 50
thermo_style custom step temp press vol etotal ke pe c_1[4]

# Neighbor lists
#
neigh_modify delay 0 every 1 check yes

# Set fixes
#
fix 1 all momentum 10 linear 1 1 1 rescale
fix 2 all nph iso 1 1 10000.0
fix 3 all temp/csvr 287 287 5000.0 837492

# Fix ice atoms in place
#
velocity ice set 0.0 0.0 0.0
fix 4 ice setforce 0.0 0.0 0.0

# Run 1.0 ns equilibration of water
#
dump 1 all atom 1000 eq.all.coexist_287K_1atm_ML.dump
run 100000
  update every 1 steps, delay 0 steps, check yes
Step Temp Press Volume TotEng KinEng PotEng c_1[4]
0    128.46427   -584.49211    270631.09   -84581.518    3267.1381   -87848.656            0
Averages over the last 1001 of 2001 rows, steps 50000 to 100000:
Temp Press Volume TotEng KinEng PotEng c_1[4]
287.771 -1.63254 274651 -77091.8 7318.68 -84410.4 3624.95
Loop time of 251.962 on 6 procs for 100000 steps with 8533 atoms

# Create data file for import to other simulations
#
write_data data.coexist_287K_1atm_ML
System init for write_data ...
