read_data data.ice_293K_-1000atm_ML group ice
Reading data file ...
  orthogonal box = (-0.080012562 -0.071122278 -0.071122278) to (57.350523 50.978242 50.978242)
  reading atoms ...
  4608 atoms
  reading velocities ...
  4608 velocities
read_data data.liq_293K_-1000atm_ML add append shift 50.9782422775769 0.0711222775768903 0.0711222775768903 group water
Reading data file ...
  orthogonal box = (-0.080012562 -0.26020103 -0.26020103) to (104.27610 51.309566 51.309566)
  reading atoms ...
  4608 atoms
  reading velocities ...
  4608 velocities

write_data data.icewater_test
System init for write_data ...

# Define potential
#
pair_style sw
pair_coeff * * /data/emrosky-sim/Freezing_Simulations/Melting/MLmW_fancy/ML_mW.sw mW
Reading sw potential file /data/emrosky-sim/Freezing_Simulations/Melting/MLmW_fancy/ML_mW.sw with DATE: 2019-02-27

# Delete water and ice atoms that are overlapping
#
delete_atoms overlap 2.5 water ice
System init for delete_atoms ...
  update every 1 steps, delay 10 steps, check yes
Deleted 665 atoms, new total = 8551

# set timestep
#
timestep 10.0

# Define output
#
compute 1 all msd
thermo 50
thermo_style custom step temp press vol etotal ke pe c_1[4]

# Neighbor lists
#
neigh_modify delay 0 every 1 check yes

# Set fixes
#
fix 1 all momentum 10 linear 1 1 1 rescale
fix 2 all nph iso -1000 -1000 10000.0
fix 3 all temp/csvr 293 293 5000.0 837492

# Fix ice atoms in place
#
velocity ice set 0.0 0.0 0.0
fix 4 ice setforce 0.0 0.0 0.0

# Run 1.0 ns equilibration of water
#
dump 1 all atom 1000 eq.all.coexist_293K_-1000atm_ML.dump
run 100000
  update every 1 steps, delay 0 steps, check yes
Step Temp Press Volume TotEng KinEng PotEng c_1[4]
0    136.24859   -1842.3076     277528.9    -83180.64    3472.4214   -86653.061            0
Averages over the last 1001 of 2001 rows, steps 50000 to 100000:
Temp Press Volume TotEng KinEng PotEng c_1[4]
293.707 -1002.53 280191 -75662.9 7485.39 -83148.3 3850.96
Loop time of 249.148 on 6 procs for 100000 steps with 8551 atoms

# Create data file for import to other simulations
#
write_data data.coexist_293K_-1000atm_ML
System init for write_data ...
