# Create simulation box of size 50 x 50 x 50 Angstrom
#
lattice	            sc 1
Lattice spacing in x,y,z = 1.0000000 1.0000000 1.0000000
region 	            all block 0 53.4 -0.07112227757689027.0 50.978242277576925.0 -0.07112227757689027.0 50.978242277576925.0 units box
create_box          1 all
Created orthogonal box = (0.0000000 -0.071122278 -0.071122278) to (53.400000 50.978242 50.978242)

# fill box with 4175 randomly distributed atoms
#
create_atoms        1 random 4608 63782 all
Created 4608 atoms
mass                1 18.015

# Define potential
#
pair_style          sw
pair_coeff          * * /data/emrosky-sim/Freezing_Simulations/Melting/MLmW_fancy/ML_mW.sw mW
Reading sw potential file /data/emrosky-sim/Freezing_Simulations/Melting/MLmW_fancy/ML_mW.sw with DATE: 2019-02-27

# Run minimization
#
minimize            1.0e-8 1.0e-8 10000 1000
  update every 1 steps, delay 0 steps, check yes
Step Temp E_pair E_mol TotEng Press
0            0    7211746.3            0    7211746.3    4925514.9
Loop time of 1.24067 on 6 procs for 669 steps with 4608 atoms

Minimization stats:
  Stopping criterion = max force evaluations
  Energy initial, next-to-last, final =
  Force two-norm initial, final = 1.6564860e+08 7.5233384
  Force max component initial, final = 88164011.0 1.3087131
  Final line search alpha, max atom move = 0.019222252 0.025156413
  Iterations, force evaluations = 669 1000

# Add velocity/set timestep
#
velocity            all create 293 120598 rot yes dist gaussian
timestep            5.0

# Define output
#
compute	            1 all msd
thermo	            100
thermo_style        custom step temp press vol etotal ke pe c_1[4] density

# Neighbor lists
#
neigh_modify        delay 0 every 1 check yes

# Set fixes
#
fix                 1 all momentum 10 linear 1 1 1 rescale
fix                 2 all nve
fix                 3 all temp/csvr 293 293 500.0 928347
fix                 4 all press/berendsen iso -1000 -1000 1000.0 modulus 20000

# Run 0.5 ns equilibration
#
dump                1 all custom 1000 eq.liq_293K_-1000atm_ML.dump id type x y z vx vy vz
run                 100000
Step Temp Press Volume TotEng KinEng PotEng c_1[4] Density
669          293    739.64049    139162.41   -45890.886    4023.6494   -49914.536 1.1796321e-33    0.9905442
Averages over the last 501 of 1002 rows, steps 50700 to 100669:
Temp Press Volume TotEng KinEng PotEng c_1[4] Density
292.239 -998.647 142779 -40977 4013.2 -44990.2 800.15 0.965463
Loop time of 110.949 on 6 procs for 100000 steps with 4608 atoms

undump              1
unfix               2
unfix               3
unfix               4

################################################
#######         Run Simulation         #########
################################################

reset_timestep      0
log                 log.run_liq_293K_-1000atm_ML
