read_data data.ice_278K_-1000atm_mW group ice
Reading data file ...
  orthogonal box = (0.32684046 0.29052485 0.29052485) to (56.943670 50.616595 50.616595)
  reading atoms ...
  4608 atoms
  reading velocities ...
  4608 velocities
read_data data.liq_278K_-1000atm_mW add append shift 50.6165951501476 -0.290524849854208 -0.290524849854208 group water
Reading data file ...
  orthogonal box = (0.32684046 -0.3250032 -0.3250032) to (104.50010 50.651074 50.651074)
  reading atoms ...
  4608 atoms
  reading velocities ...
  4608 velocities

write_data data.icewater_test
System init for write_data ...

# Define potential
#
pair_style sw
pair_coeff * * /data/emrosky-sim/Freezing_Simulations/Melting/mW_fancy/mW.sw mW
Reading sw potential file /data/emrosky-sim/Freezing_Simulations/Melting/mW_fancy/mW.sw with DATE: 2019-02-27

# Delete water and ice atoms that are overlapping
#
delete_atoms overlap 2.5 water ice
System init for delete_atoms ...
  update every 1 steps, delay 10 steps, check yes
Deleted 706 atoms, new total = 8510

# set timestep
#
timestep 10.0

# Define output
#
compute 1 all msd
thermo 50
thermo_style custom step temp press vol etotal ke pe c_1[4]

# Neighbor lists
#
neigh_modify delay 0 every 1 check yes

# Set fixes
#
fix 1 all momentum 10 linear 1 1 1 rescale
fix 2 all nph iso -1000 -1000 10000.0
fix 3 all temp/csvr 278 278 5000.0 837492

# Fix ice atoms in place
#
velocity ice set 0.0 0.0 0.0
fix 4 ice setforce 0.0 0.0 0.0

# Run 1.0 ns equilibration of water
#
dump 1 all atom 1000 eq.all.coexist_278K_-1000atm_mW.dump
run 100000
  update every 1 steps, delay 0 steps, check yes
Step Temp Press Volume TotEng KinEng PotEng c_1[4]
0    126.09153   -2000.0443    270700.52   -85728.091    3198.1493    -88926.24            0
Averages over the last 1001 of 2001 rows, steps 50000 to 100000:
Temp Press Volume TotEng KinEng PotEng c_1[4]
278.669 -1001.02 271758 -79224.9 7068.08 -86293 4059.87
Loop time of 343.452 on 6 procs for 100000 steps with 8510 atoms

# Create data file for import to other simulations
#
write_data data.coexist_278K_-1000atm_mW
System init for write_data ...
