read_data data.ice_279K_-1000atm_mW group ice
Reading data file ...
  orthogonal box = (0.38301084 0.34045408 0.34045408) to (56.887499 50.566666 50.566666)
  reading atoms ...
  4608 atoms
  reading velocities ...
  4608 velocities
read_data data.liq_279K_-1000atm_mW add append shift 50.566665918966 -0.34045408103183 -0.34045408103183 group water
Reading data file ...
  orthogonal box = (0.38301084 -0.36650999 -0.36650999) to (104.35444 50.592722 50.592722)
  reading atoms ...
  4608 atoms
  reading velocities ...
  4608 velocities

write_data data.icewater_test
System init for write_data ...

# Define potential
#
pair_style sw
pair_coeff * * /data/emrosky-sim/Freezing_Simulations/Melting/mW_fancy/mW.sw mW
Reading sw potential file /data/emrosky-sim/Freezing_Simulations/Melting/mW_fancy/mW.sw with DATE: 2019-02-27

# Delete water and ice atoms that are overlapping
#
delete_atoms overlap 2.5 water ice
System init for delete_atoms ...
  update every 1 steps, delay 10 steps, check yes
Deleted 709 atoms, new total = 8507

# set timestep
#
timestep 10.0

# Define output
#
compute 1 all msd
thermo 50
thermo_style custom step temp press vol etotal ke pe c_1[4]

# Neighbor lists
#
neigh_modify delay 0 every 1 check yes

# Set fixes
#
fix 1 all momentum 10 linear 1 1 1 rescale
fix 2 all nph iso -1000 -1000 10000.0
fix 3 all temp/csvr 279 279 5000.0 837492

# Fix ice atoms in place
#
velocity ice set 0.0 0.0 0.0
fix 4 ice setforce 0.0 0.0 0.0

# Run 1.0 ns equilibration of water
#
dump 1 all atom 1000 eq.all.coexist_279K_-1000atm_mW.dump
run 100000
  update every 1 steps, delay 0 steps, check yes
Step Temp Press Volume TotEng KinEng PotEng c_1[4]
0    128.14373    -1918.366    269997.51   -85740.251    3249.0547   -88989.306            0
Averages over the last 1001 of 2001 rows, steps 50000 to 100000:
Temp Press Volume TotEng KinEng PotEng c_1[4]
279.567 -1003.25 272328 -78886 7088.36 -85974.3 4070.41
Loop time of 355.328 on 6 procs for 100000 steps with 8507 atoms

# Create data file for import to other simulations
#
write_data data.coexist_279K_-1000atm_mW
System init for write_data ...
