read_data data.ice_292K_-1000atm_ML group ice
Reading data file ...
  orthogonal box = (-0.087768021 -0.078016019 -0.078016019) to (57.358278 50.985136 50.985136)
  reading atoms ...
  4608 atoms
  reading velocities ...
  4608 velocities
read_data data.liq_292K_-1000atm_ML add append shift 50.9851360188979 0.0780160188983707 0.0780160188983707 group water
Reading data file ...
  orthogonal box = (-0.087768021 -0.21299695 -0.21299695) to (104.59961 51.276149 51.276149)
  reading atoms ...
  4608 atoms
  reading velocities ...
  4608 velocities

write_data data.icewater_test
System init for write_data ...

# Define potential
#
pair_style sw
pair_coeff * * /data/emrosky-sim/Freezing_Simulations/Melting/MLmW_fancy/ML_mW.sw mW
Reading sw potential file /data/emrosky-sim/Freezing_Simulations/Melting/MLmW_fancy/ML_mW.sw with DATE: 2019-02-27

# Delete water and ice atoms that are overlapping
#
delete_atoms overlap 2.5 water ice
System init for delete_atoms ...
  update every 1 steps, delay 10 steps, check yes
Deleted 696 atoms, new total = 8520

# set timestep
#
timestep 10.0

# Define output
#
compute 1 all msd
thermo 50
thermo_style custom step temp press vol etotal ke pe c_1[4]

# Neighbor lists
#
neigh_modify delay 0 every 1 check yes

# Set fixes
#
fix 1 all momentum 10 linear 1 1 1 rescale
fix 2 all nph iso -1000 -1000 10000.0
fix 3 all temp/csvr 292 292 5000.0 837492

# Fix ice atoms in place
#
velocity ice set 0.0 0.0 0.0
fix 4 ice setforce 0.0 0.0 0.0

# Run 1.0 ns equilibration of water
#
dump 1 all atom 1000 eq.all.coexist_292K_-1000atm_ML.dump
run 100000
  update every 1 steps, delay 0 steps, check yes
Step Temp Press Volume TotEng KinEng PotEng c_1[4]
0    134.03986   -1884.3495    277540.08    -83336.92    3403.7439   -86740.664            0
Averages over the last 1001 of 2001 rows, steps 50000 to 100000:
Temp Press Volume TotEng KinEng PotEng c_1[4]
292.856 -1003.39 279512 -75658.7 7436.65 -83095.3 3830.38
Loop time of 244.774 on 6 procs for 100000 steps with 8520 atoms

# Create data file for import to other simulations
#
write_data data.coexist_292K_-1000atm_ML
System init for write_data ...
