# Create simulation box of size 50 x 50 x 50 Angstrom
#
lattice	            sc 1
Lattice spacing in x,y,z = 1.0000000 1.0000000 1.0000000
region 	            all block 0 53.4 0.3761817179682261.0 50.530938282029965.0 0.3761817179682261.0 50.530938282029965.0 units box
create_box          1 all
Created orthogonal box = (0.0000000 0.37618172 0.37618172) to (53.400000 50.530938 50.530938)

# fill box with 4175 randomly distributed atoms
#
create_atoms        1 random 4608 63782 all
Created 4608 atoms
mass                1 18.015

# Define potential
#
pair_style          sw
pair_coeff          * * /data/emrosky-sim/Freezing_Simulations/Melting/mW_fancy/mW.sw mW
Reading sw potential file /data/emrosky-sim/Freezing_Simulations/Melting/mW_fancy/mW.sw with DATE: 2019-02-27

# Run minimization
#
minimize            1.0e-8 1.0e-8 10000 1000
  update every 1 steps, delay 0 steps, check yes
Step Temp E_pair E_mol TotEng Press
0            0    4753279.9            0    4753279.9    3381125.4
Loop time of 2.13454 on 6 procs for 686 steps with 4608 atoms

Minimization stats:
  Stopping criterion = max force evaluations
  Energy initial, next-to-last, final =
  Force two-norm initial, final = 1.0881577e+08 2.8526868
  Force max component initial, final = 57474501.0 0.50361874
  Final line search alpha, max atom move = 0.056086875 0.028246401
  Iterations, force evaluations = 686 1001

# Add velocity/set timestep
#
velocity            all create 271 120598 rot yes dist gaussian
timestep            5.0

# Define output
#
compute	            1 all msd
thermo	            100
thermo_style        custom step temp press vol etotal ke pe c_1[4] density

# Neighbor lists
#
neigh_modify        delay 0 every 1 check yes

# Set fixes
#
fix                 1 all momentum 10 linear 1 1 1 rescale
fix                 2 all nve
fix                 3 all temp/csvr 271 271 500.0 928347
fix                 4 all press/berendsen iso -500 -500 1000.0 modulus 20000

# Run 0.5 ns equilibration
#
dump                1 all custom 1000 eq.liq_271K_-500atm_mW.dump id type x y z vx vy vz
run                 100000
Step Temp Press Volume TotEng KinEng PotEng c_1[4] Density
686          271    1690.1039    134327.68   -48469.158    3721.5324    -52190.69 6.5334498e-34    1.0261959
Averages over the last 501 of 1002 rows, steps 50700 to 100686:
Temp Press Volume TotEng KinEng PotEng c_1[4] Density
270.497 -500.449 139037 -43346.6 3714.62 -47061.2 948.973 0.99144
Loop time of 182.046 on 6 procs for 100000 steps with 4608 atoms

undump              1
unfix               2
unfix               3
unfix               4

################################################
#######         Run Simulation         #########
################################################

reset_timestep      0
log                 log.run_liq_271K_-500atm_mW
