# Create simulation box of size 50 x 50 x 50 Angstrom
#
lattice	            sc 1
Lattice spacing in x,y,z = 1.0000000 1.0000000 1.0000000
region 	            all block 0 53.4 -0.051228420782809536.0 50.95834842077784.0 -0.051228420782809536.0 50.95834842077784.0 units box
create_box          1 all
Created orthogonal box = (0.0000000 -0.051228421 -0.051228421) to (53.400000 50.958348 50.958348)

# fill box with 4175 randomly distributed atoms
#
create_atoms        1 random 4608 63782 all
Created 4608 atoms
mass                1 18.015

# Define potential
#
pair_style          sw
pair_coeff          * * /data/emrosky-sim/Freezing_Simulations/Melting/MLmW_fancy/ML_mW.sw mW
Reading sw potential file /data/emrosky-sim/Freezing_Simulations/Melting/MLmW_fancy/ML_mW.sw with DATE: 2019-02-27

# Run minimization
#
minimize            1.0e-8 1.0e-8 10000 1000
  update every 1 steps, delay 0 steps, check yes
Step Temp E_pair E_mol TotEng Press
0            0    7225999.2            0    7225999.2      4942983
Loop time of 1.23829 on 6 procs for 669 steps with 4608 atoms

Minimization stats:
  Stopping criterion = max force evaluations
  Energy initial, next-to-last, final =
  Force two-norm initial, final = 1.6602164e+08 4.3904588
  Force max component initial, final = 88333324.0 1.2086639
  Final line search alpha, max atom move = 0.032574137 0.039371185
  Iterations, force evaluations = 669 1001

# Add velocity/set timestep
#
velocity            all create 289 120598 rot yes dist gaussian
timestep            5.0

# Define output
#
compute	            1 all msd
thermo	            100
thermo_style        custom step temp press vol etotal ke pe c_1[4] density

# Neighbor lists
#
neigh_modify        delay 0 every 1 check yes

# Set fixes
#
fix                 1 all momentum 10 linear 1 1 1 rescale
fix                 2 all nve
fix                 3 all temp/csvr 289 289 500.0 928347
fix                 4 all press/berendsen iso -500 -500 1000.0 modulus 20000

# Run 0.5 ns equilibration
#
dump                1 all custom 1000 eq.liq_289K_-500atm_ML.dump id type x y z vx vy vz
run                 100000
Step Temp Press Volume TotEng KinEng PotEng c_1[4] Density
669          289    981.66286    138945.57   -45963.157    3968.7191   -49931.876 1.0487395e-33   0.99209006
Averages over the last 501 of 1002 rows, steps 50700 to 100669:
Temp Press Volume TotEng KinEng PotEng c_1[4] Density
288.398 -513.475 140172 -41177 3960.46 -45137.4 821.391 0.983418
Loop time of 116.737 on 6 procs for 100000 steps with 4608 atoms

undump              1
unfix               2
unfix               3
unfix               4

################################################
#######         Run Simulation         #########
################################################

reset_timestep      0
log                 log.run_liq_289K_-500atm_ML
