# Create simulation box of size 50 x 50 x 50 Angstrom
#
lattice	            sc 1
Lattice spacing in x,y,z = 1.0000000 1.0000000 1.0000000
region 	            all block 0 53.4 -0.057899546443248795.0 50.96501954644481.0 -0.057899546443248795.0 50.96501954644481.0 units box
create_box          1 all
Created orthogonal box = (0.0000000 -0.057899546 -0.057899546) to (53.400000 50.965020 50.965020)

# fill box with 4175 randomly distributed atoms
#
create_atoms        1 random 4608 63782 all
Created 4608 atoms
mass                1 18.015

# Define potential
#
pair_style          sw
pair_coeff          * * /data/emrosky-sim/Freezing_Simulations/Melting/MLmW_fancy/ML_mW.sw mW
Reading sw potential file /data/emrosky-sim/Freezing_Simulations/Melting/MLmW_fancy/ML_mW.sw with DATE: 2019-02-27

# Run minimization
#
minimize            1.0e-8 1.0e-8 10000 1000
  update every 1 steps, delay 0 steps, check yes
Step Temp E_pair E_mol TotEng Press
0            0    7221215.7            0    7221215.7    4937117.2
Loop time of 1.22362 on 6 procs for 648 steps with 4608 atoms

Minimization stats:
  Stopping criterion = max force evaluations
  Energy initial, next-to-last, final =
  Force two-norm initial, final = 1.6589645e+08 3.5070701
  Force max component initial, final = 88276514.0 0.96833675
  Final line search alpha, max atom move = 0.071500941 0.069236989
  Iterations, force evaluations = 648 1000

# Add velocity/set timestep
#
velocity            all create 293 120598 rot yes dist gaussian
timestep            5.0

# Define output
#
compute	            1 all msd
thermo	            100
thermo_style        custom step temp press vol etotal ke pe c_1[4] density

# Neighbor lists
#
neigh_modify        delay 0 every 1 check yes

# Set fixes
#
fix                 1 all momentum 10 linear 1 1 1 rescale
fix                 2 all nve
fix                 3 all temp/csvr 293 293 500.0 928347
fix                 4 all press/berendsen iso -500 -500 1000.0 modulus 20000

# Run 0.5 ns equilibration
#
dump                1 all custom 1000 eq.liq_293K_-500atm_ML.dump id type x y z vx vy vz
run                 100000
Step Temp Press Volume TotEng KinEng PotEng c_1[4] Density
648          293    797.36195    139018.26   -45812.721    4023.6494    -49836.37 8.1918895e-34   0.99157127
Averages over the last 501 of 1002 rows, steps 50700 to 100648:
Temp Press Volume TotEng KinEng PotEng c_1[4] Density
292.34 -502.173 140281 -41011.6 4014.59 -45026.2 885.07 0.982649
Loop time of 117.321 on 6 procs for 100000 steps with 4608 atoms

undump              1
unfix               2
unfix               3
unfix               4

################################################
#######         Run Simulation         #########
################################################

reset_timestep      0
log                 log.run_liq_293K_-500atm_ML
