read_data data.ice_298K_-1000atm_ML group ice
Reading data file ...
  orthogonal box = (-0.091466585 -0.081303631 -0.081303631) to (57.361977 50.988424 50.988424)
  reading atoms ...
  4608 atoms
  reading velocities ...
  4608 velocities
read_data data.liq_298K_-1000atm_ML add append shift 50.9884236307857 0.0813036307894315 0.0813036307894315 group water
Reading data file ...
  orthogonal box = (-0.091466585 -0.21236011 -0.21236011) to (104.68430 51.282087 51.282087)
  reading atoms ...
  4608 atoms
  reading velocities ...
  4608 velocities

write_data data.icewater_test
System init for write_data ...

# Define potential
#
pair_style sw
pair_coeff * * /data/emrosky-sim/Freezing_Simulations/Melting/MLmW_fancy/ML_mW.sw mW
Reading sw potential file /data/emrosky-sim/Freezing_Simulations/Melting/MLmW_fancy/ML_mW.sw with DATE: 2019-02-27

# Delete water and ice atoms that are overlapping
#
delete_atoms overlap 2.5 water ice
System init for delete_atoms ...
  update every 1 steps, delay 10 steps, check yes
Deleted 715 atoms, new total = 8501

# set timestep
#
timestep 10.0

# Define output
#
compute 1 all msd
thermo 50
thermo_style custom step temp press vol etotal ke pe c_1[4]

# Neighbor lists
#
neigh_modify delay 0 every 1 check yes

# Set fixes
#
fix 1 all momentum 10 linear 1 1 1 rescale
fix 2 all nph iso -1000 -1000 10000.0
fix 3 all temp/csvr 298 298 5000.0 837492

# Fix ice atoms in place
#
velocity ice set 0.0 0.0 0.0
fix 4 ice setforce 0.0 0.0 0.0

# Run 1.0 ns equilibration of water
#
dump 1 all atom 1000 eq.all.coexist_298K_-1000atm_ML.dump
run 100000
  update every 1 steps, delay 0 steps, check yes
Step Temp Press Volume TotEng KinEng PotEng c_1[4]
0    134.87199   -1963.8561    277831.62   -82878.131    3417.2361   -86295.367            0
Averages over the last 1001 of 2001 rows, steps 50000 to 100000:
Temp Press Volume TotEng KinEng PotEng c_1[4]
298.798 -1005.19 279470 -75153.2 7570.62 -82723.8 4032.93
Loop time of 240.828 on 6 procs for 100000 steps with 8501 atoms

# Create data file for import to other simulations
#
write_data data.coexist_298K_-1000atm_ML
System init for write_data ...
