# Create simulation box of size 50 x 50 x 50 Angstrom
#
lattice	            sc 1
Lattice spacing in x,y,z = 1.0000000 1.0000000 1.0000000
region 	            all block 0 53.4 -0.08130363078943148.0 50.988423630785704.0 -0.08130363078943148.0 50.988423630785704.0 units box
create_box          1 all
Created orthogonal box = (0.0000000 -0.081303631 -0.081303631) to (53.400000 50.988424 50.988424)

# fill box with 4175 randomly distributed atoms
#
create_atoms        1 random 4608 63782 all
Created 4608 atoms
mass                1 18.015

# Define potential
#
pair_style          sw
pair_coeff          * * /data/emrosky-sim/Freezing_Simulations/Melting/MLmW_fancy/ML_mW.sw mW
Reading sw potential file /data/emrosky-sim/Freezing_Simulations/Melting/MLmW_fancy/ML_mW.sw with DATE: 2019-02-27

# Run minimization
#
minimize            1.0e-8 1.0e-8 10000 1000
  update every 1 steps, delay 0 steps, check yes
Step Temp E_pair E_mol TotEng Press
0            0    7204465.7            0    7204465.7    4916603.3
Loop time of 1.24176 on 6 procs for 659 steps with 4608 atoms

Minimization stats:
  Stopping criterion = max force evaluations
  Energy initial, next-to-last, final =
  Force two-norm initial, final = 1.6545803e+08 5.8283205
  Force max component initial, final = 88077474.0 1.8505813
  Final line search alpha, max atom move = 0.032702701 0.060519009
  Iterations, force evaluations = 659 1000

# Add velocity/set timestep
#
velocity            all create 298 120598 rot yes dist gaussian
timestep            5.0

# Define output
#
compute	            1 all msd
thermo	            100
thermo_style        custom step temp press vol etotal ke pe c_1[4] density

# Neighbor lists
#
neigh_modify        delay 0 every 1 check yes

# Set fixes
#
fix                 1 all momentum 10 linear 1 1 1 rescale
fix                 2 all nve
fix                 3 all temp/csvr 298 298 500.0 928347
fix                 4 all press/berendsen iso -1000 -1000 1000.0 modulus 20000

# Run 0.5 ns equilibration
#
dump                1 all custom 1000 eq.liq_298K_-1000atm_ML.dump id type x y z vx vy vz
run                 100000
Step Temp Press Volume TotEng KinEng PotEng c_1[4] Density
659          298    924.62579    139273.45   -45773.791    4092.3124   -49866.103            0   0.98975445
Averages over the last 501 of 1002 rows, steps 50700 to 100659:
Temp Press Volume TotEng KinEng PotEng c_1[4] Density
297.192 -992.837 142859 -40757.9 4081.21 -44839.1 841.038 0.964917
Loop time of 111.649 on 6 procs for 100000 steps with 4608 atoms

undump              1
unfix               2
unfix               3
unfix               4

################################################
#######         Run Simulation         #########
################################################

reset_timestep      0
log                 log.run_liq_298K_-1000atm_ML
