read_data data.ice_290K_-500atm_ML group ice
Reading data file ...
  orthogonal box = (-0.043956152 -0.039072135 -0.039072135) to (57.314466 50.946192 50.946192)
  reading atoms ...
  4608 atoms
  reading velocities ...
  4608 velocities
read_data data.liq_290K_-500atm_ML add append shift 50.9461921348397 0.0390721348408292 0.0390721348408292 group water
Reading data file ...
  orthogonal box = (-0.043956152 -0.064594957 -0.064594957) to (104.51764 51.049859 51.049859)
  reading atoms ...
  4608 atoms
  reading velocities ...
  4608 velocities

write_data data.icewater_test
System init for write_data ...

# Define potential
#
pair_style sw
pair_coeff * * /data/emrosky-sim/Freezing_Simulations/Melting/MLmW_fancy/ML_mW.sw mW
Reading sw potential file /data/emrosky-sim/Freezing_Simulations/Melting/MLmW_fancy/ML_mW.sw with DATE: 2019-02-27

# Delete water and ice atoms that are overlapping
#
delete_atoms overlap 2.5 water ice
System init for delete_atoms ...
  update every 1 steps, delay 10 steps, check yes
Deleted 713 atoms, new total = 8503

# set timestep
#
timestep 10.0

# Define output
#
compute 1 all msd
thermo 50
thermo_style custom step temp press vol etotal ke pe c_1[4]

# Neighbor lists
#
neigh_modify delay 0 every 1 check yes

# Set fixes
#
fix 1 all momentum 10 linear 1 1 1 rescale
fix 2 all nph iso -500 -500 10000.0
fix 3 all temp/csvr 290 290 5000.0 837492

# Fix ice atoms in place
#
velocity ice set 0.0 0.0 0.0
fix 4 ice setforce 0.0 0.0 0.0

# Run 1.0 ns equilibration of water
#
dump 1 all atom 1000 eq.all.coexist_290K_-500atm_ML.dump
run 100000
  update every 1 steps, delay 0 steps, check yes
Step Temp Press Volume TotEng KinEng PotEng c_1[4]
0    133.36241   -940.27568    273186.77    -83874.95    3379.7831   -87254.733            0
Averages over the last 1001 of 2001 rows, steps 50000 to 100000:
Temp Press Volume TotEng KinEng PotEng c_1[4]
290.747 -495.739 276723 -76287.9 7368.36 -83656.2 3714.61
Loop time of 249.917 on 6 procs for 100000 steps with 8503 atoms

# Create data file for import to other simulations
#
write_data data.coexist_290K_-500atm_ML
System init for write_data ...
