# Create simulation box of size 50 x 50 x 50 Angstrom
#
lattice	            sc 1
Lattice spacing in x,y,z = 1.0000000 1.0000000 1.0000000
region 	            all block 0 53.4 -0.09408780218431545.0 51.00120780218181.0 -0.09408780218431545.0 51.00120780218181.0 units box
create_box          1 all
Created orthogonal box = (0.0000000 -0.094087802 -0.094087802) to (53.400000 51.001208 51.001208)

# fill box with 4175 randomly distributed atoms
#
create_atoms        1 random 4608 63782 all
Created 4608 atoms
mass                1 18.015

# Define potential
#
pair_style          sw
pair_coeff          * * /data/emrosky-sim/Freezing_Simulations/Melting/MLmW_fancy/ML_mW.sw mW
Reading sw potential file /data/emrosky-sim/Freezing_Simulations/Melting/MLmW_fancy/ML_mW.sw with DATE: 2019-02-27

# Run minimization
#
minimize            1.0e-8 1.0e-8 10000 1000
  update every 1 steps, delay 0 steps, check yes
Step Temp E_pair E_mol TotEng Press
0            0      7195337            0      7195337    4905440.4
Loop time of 1.33181 on 6 procs for 659 steps with 4608 atoms

Minimization stats:
  Stopping criterion = max force evaluations
  Energy initial, next-to-last, final =
  Force two-norm initial, final = 1.6521907e+08 6.0215980
  Force max component initial, final = 87968926.0 1.0897124
  Final line search alpha, max atom move = 0.050893003 0.055458735
  Iterations, force evaluations = 659 1000

# Add velocity/set timestep
#
velocity            all create 297 120598 rot yes dist gaussian
timestep            5.0

# Define output
#
compute	            1 all msd
thermo	            100
thermo_style        custom step temp press vol etotal ke pe c_1[4] density

# Neighbor lists
#
neigh_modify        delay 0 every 1 check yes

# Set fixes
#
fix                 1 all momentum 10 linear 1 1 1 rescale
fix                 2 all nve
fix                 3 all temp/csvr 297 297 500.0 928347
fix                 4 all press/berendsen iso -1000 -1000 1000.0 modulus 20000

# Run 0.5 ns equilibration
#
dump                1 all custom 1000 eq.liq_297K_-1000atm_ML.dump id type x y z vx vy vz
run                 100000
Step Temp Press Volume TotEng KinEng PotEng c_1[4] Density
659          297    893.25759    139412.94    -45766.88    4078.5798    -49845.46            0   0.98876414
Averages over the last 501 of 1002 rows, steps 50700 to 100659:
Temp Press Volume TotEng KinEng PotEng c_1[4] Density
296.176 -1003.66 142794 -40797.3 4067.26 -44864.5 871.582 0.965355
Loop time of 112.063 on 6 procs for 100000 steps with 4608 atoms

undump              1
unfix               2
unfix               3
unfix               4

################################################
#######         Run Simulation         #########
################################################

reset_timestep      0
log                 log.run_liq_297K_-1000atm_ML
