# Create simulation box of size ~50 x 30 x 30 Angstrom
#
#variable	    lattice_constant equal 6.36339
region all block 0 57 0 57 0 57 units box
create_box 1 all
Created orthogonal box = (0.0000000 0.0000000 0.0000000) to (57.000000 57.000000 57.000000)

# fill box with randomly distributed atoms
#
create_atoms 1 random 5832 3782 all
Created 5832 atoms
mass 1 18.015
group water region all
5832 atoms in group water

# Define potential
#
pair_style sw
pair_coeff * * ML.sw mW
Reading sw potential file ML.sw with DATE: 2019-02-27

# Run minimization
#
minimize 1.0e-8 1.0e-8 10000 1000
  update every 1 steps, delay 0 steps, check yes
Step Temp E_pair E_mol TotEng Press
0            0    8468761.7            0    8468761.7    4349821.1
Loop time of 1.45893 on 6 procs for 689 steps with 5832 atoms

Minimization stats:
  Stopping criterion = max force evaluations
  Energy initial, next-to-last, final =
  Force two-norm initial, final = 1.3697435e+08 8.7292747
  Force max component initial, final = 89107039.0 2.2771047
  Final line search alpha, max atom move = 0.042406301 0.096563587
  Iterations, force evaluations = 689 1000

# Add velocity/set timestep
#
velocity all create 284 120598 rot yes dist gaussian
timestep 10.0

# Define output
#
compute 1 all msd
thermo 50
thermo_style custom step temp press vol etotal ke pe c_1[4]

# Neighbor lists
#
neigh_modify delay 0 every 1 check yes

# Set fixes
#
fix 1 all momentum 10 linear 1 1 1 rescale
fix 2 all nph iso 1 1 10000.0
fix 3 all temp/csvr 284 284 5000.0 837492

# Run 1 ns equilibration
#
dump 1 all atom 1000 eq.water.icewater_284K_1atm_ML_LG.dump
run 100000
Step Temp Press Volume TotEng KinEng PotEng c_1[4]
689          284    316.52666       185193   -57409.313    4936.2334   -62345.546 1.1796321e-33
Averages over the last 1001 of 2002 rows, steps 50700 to 100689:
Temp Press Volume TotEng KinEng PotEng c_1[4]
284.662 -5.14628 174741 -52192.5 4947.75 -57140.2 1748.15
Loop time of 174.983 on 6 procs for 100000 steps with 5832 atoms

undump 1
reset_timestep 0
#unfix 2
#unfix 3
#unfix 4

write_data data.water_1atm_LG
System init for write_data ...
