# Define the lattice
#
variable	    lattice_constant equal 6.36339
lattice		    diamond 6.36339
Lattice spacing in x,y,z = 6.3633900 6.3633900 6.3633900

# Define region
# multiples of lattice spacing
#
region 		    simbox block 0 9 0 9 0 9

# Create Atoms
#
create_box          1 simbox
Created orthogonal box = (0.0000000 0.0000000 0.0000000) to (57.270510 57.270510 57.270510)
create_atoms        1 box
Created 5832 atoms
mass                1 18.015

# Define potential
#
pair_style          sw
pair_coeff          * * ML.sw mW
Reading sw potential file ML.sw with DATE: 2019-02-27

# Add velocity/set timestep
#
velocity            all create 289 120598 rot yes dist gaussian
timestep            5.0

# Define output
#
compute	            1 all msd
thermo              100
thermo_style        custom step temp press vol etotal ke pe c_1[4]

# Neighbor lists
#
neigh_modify        delay 0 every 1 check yes

# Set fixes
#
fix                 1 all momentum 10 linear 1 1 1 rescale
fix                 2 all nph iso 1 1 10000.0
fix                 3 all temp/csvr 289 289 5000.0 837492

# Run 0.5 ns equilibration
#
dump		    1 all custom 1000 eq.ice_289K_1atm_LG.dump id type x y z vx vy vz
run                 100000
  update every 1 steps, delay 0 steps, check yes
Step Temp Press Volume TotEng KinEng PotEng c_1[4]
0          289   -639.88797    187842.19   -65721.735    5023.1389   -70744.874            0
Averages over the last 501 of 1001 rows, steps 50000 to 100000:
Temp Press Volume TotEng KinEng PotEng c_1[4]
290.061 1.01746 188015 -60239.2 5041.58 -65280.8 0.146399
Loop time of 72.5819 on 6 procs for 100000 steps with 5832 atoms

undump              1
unfix               2
unfix               3

################################################
#######         Run Simulation         #########
################################################

reset_timestep      0
log                 log.run_ice_289K_1atm_LG
