# Create simulation box of size ~100 x 25 x 25 Angstrom
#
#variable	    lattice_constant equal 6.36339
region all block 0 100 0 25.5269852578308 0 25.5269852578308 units box
create_box 1 all
Created orthogonal box = (0.0000000 0.0000000 0.0000000) to (100.00000 25.526985 25.526985)

# fill box with randomly distributed atoms
#
create_atoms 1 random 2081 63782 all
Created 2081 atoms
mass 1 18.015
group water region all
2081 atoms in group water

# Define potential
#
pair_style sw
pair_coeff * * ML.sw mW
Reading sw potential file ML.sw with DATE: 2019-02-27

# Run minimization
#
minimize 1.0e-8 1.0e-8 10000 1000
  update every 1 steps, delay 0 steps, check yes
Step Temp E_pair E_mol TotEng Press
0            0    2593458.8            0    2593458.8    3806731.6
Loop time of 1.00238 on 4 procs for 637 steps with 2081 atoms

Minimization stats:
  Stopping criterion = max force evaluations
  Energy initial, next-to-last, final =
  Force two-norm initial, final = 49150409.0 4.3496623
  Force max component initial, final = 32380499.0 0.79901988
  Final line search alpha, max atom move = 0.054572375 0.043604412
  Iterations, force evaluations = 637 1000

# Add velocity/set timestep
#
velocity all create 287 120598 rot yes dist gaussian
timestep 10.0

# Define output
#
compute 1 all msd
thermo 50
thermo_style custom step temp press vol etotal ke pe c_1[4]

# Neighbor lists
#
neigh_modify delay 0 every 1 check yes

# Set fixes
#
fix 1 all momentum 10 linear 1 1 1 rescale
fix 2 all nve
fix 3 all temp/csvr 287 287 500.0 928347
fix 4 all press/berendsen iso 1 1 1000.0 modulus 20000

# Run 1 ns equilibration
#
dump 1 all atom 1000 eq.water.longseed_284K_1atm_ML.dump
run 100000
Step Temp Press Volume TotEng KinEng PotEng c_1[4]
637          287    401.17589    65162.698   -20607.802    1779.4244   -22387.226 2.1390817e-33
Averages over the last 1001 of 2002 rows, steps 50650 to 100637:
Temp Press Volume TotEng KinEng PotEng c_1[4]
286.627 -2.91089 62331.6 -18588.1 1777.11 -20365.2 1836.32
Loop time of 113.138 on 4 procs for 100000 steps with 2081 atoms

undump 1
reset_timestep 0
#unfix 2
#unfix 3
#unfix 4

################################################
####### Insert Ice #########
################################################

log log.longseed_284K_1atm_ML.eq_all
