read_data data.ice_289K_1atm_LG group ice
Reading data file ...
  orthogonal box = (-0.024949448 -0.024949448 -0.024949448) to (57.295459 57.295459 57.295459)
  reading atoms ...
  5832 atoms
  reading velocities ...
  5832 velocities
read_data data.water_289K_1atm_LG add append shift 57.2954594476322 -0.0249494476353291 -0.0249494476353291 group water
Reading data file ...
  orthogonal box = (-0.024949448 -0.024949448 -0.024949448) to (113.75513 57.295459 57.295459)
  reading atoms ...
  5832 atoms
  reading velocities ...
  5832 velocities

write_data data.icewater_test
System init for write_data ...

# Define potential
#
pair_style sw
pair_coeff * * ML.sw mW
Reading sw potential file ML.sw with DATE: 2019-02-27

# Delete water and ice atoms that are overlapping
#
delete_atoms overlap 2.4 water ice
System init for delete_atoms ...
  update every 1 steps, delay 10 steps, check yes
Deleted 111 atoms, new total = 11553

# set timestep
#
timestep 10.0

# Define output
#
compute 1 all msd
thermo 50
thermo_style custom step temp press vol etotal ke pe c_1[4]

# Neighbor lists
#
neigh_modify delay 0 every 1 check yes

# Set fixes
#
fix 1 all momentum 10 linear 1 1 1 rescale
fix 2 all nph iso 1 1 10000.0
fix 3 all temp/csvr 284 284 5000.0 837492

# Fix ice atoms in place
#
velocity ice set 0.0 0.0 0.0
fix 4 ice setforce 0.0 0.0 0.0

# Run 1.0 ns equilibration of water
#
dump 1 all atom 1000 eq.all.icewater_284K_1atm_LG.dump
run 100000
  update every 1 steps, delay 0 steps, check yes
Step Temp Press Volume TotEng KinEng PotEng c_1[4]
0    140.74014   -1351.5791    373839.17   -111756.16    4846.2907   -116602.45            0
Averages over the last 1001 of 2001 rows, steps 50000 to 100000:
Temp Press Volume TotEng KinEng PotEng c_1[4]
284.533 -3.01983 373720 -103925 9797.69 -113723 3646.87
Loop time of 331.295 on 6 procs for 100000 steps with 11553 atoms

# Create data file for import to other simulations
#
write_data data.icewater_1atm_LG
System init for write_data ...
