read_data data.ice_295K_-1000atm_ML group ice
Reading data file ...
  orthogonal box = (-0.072235353 -0.064209203 -0.064209203) to (57.342745 50.971329 50.971329)
  reading atoms ...
  4608 atoms
  reading velocities ...
  4608 velocities
read_data data.liq_295K_-1000atm_ML add append shift 50.9713292026388 0.0642092026386187 0.0642092026386187 group water
Reading data file ...
  orthogonal box = (-0.072235353 -0.23581881 -0.23581881) to (104.39177 51.271357 51.271357)
  reading atoms ...
  4608 atoms
  reading velocities ...
  4608 velocities

write_data data.icewater_test
System init for write_data ...

# Define potential
#
pair_style sw
pair_coeff * * /data/emrosky-sim/Freezing_Simulations/Melting/MLmW_fancy/ML_mW.sw mW
Reading sw potential file /data/emrosky-sim/Freezing_Simulations/Melting/MLmW_fancy/ML_mW.sw with DATE: 2019-02-27

# Delete water and ice atoms that are overlapping
#
delete_atoms overlap 2.5 water ice
System init for delete_atoms ...
  update every 1 steps, delay 10 steps, check yes
Deleted 684 atoms, new total = 8532

# set timestep
#
timestep 10.0

# Define output
#
compute 1 all msd
thermo 50
thermo_style custom step temp press vol etotal ke pe c_1[4]

# Neighbor lists
#
neigh_modify delay 0 every 1 check yes

# Set fixes
#
fix 1 all momentum 10 linear 1 1 1 rescale
fix 2 all nph iso -1000 -1000 10000.0
fix 3 all temp/csvr 295 295 5000.0 837492

# Fix ice atoms in place
#
velocity ice set 0.0 0.0 0.0
fix 4 ice setforce 0.0 0.0 0.0

# Run 1.0 ns equilibration of water
#
dump 1 all atom 1000 eq.all.coexist_295K_-1000atm_ML.dump
run 100000
  update every 1 steps, delay 0 steps, check yes
Step Temp Press Volume TotEng KinEng PotEng c_1[4]
0    136.84688   -1862.5886    277141.89   -83218.424    3479.9191   -86698.343            0
Averages over the last 1001 of 2001 rows, steps 50000 to 100000:
Temp Press Volume TotEng KinEng PotEng c_1[4]
295.791 -997.483 279392 -75538.5 7521.75 -83060.2 3902.4
Loop time of 247.972 on 6 procs for 100000 steps with 8532 atoms

# Create data file for import to other simulations
#
write_data data.coexist_295K_-1000atm_ML
System init for write_data ...
