# Create simulation box of size 50 x 50 x 50 Angstrom
#
lattice	            sc 1
Lattice spacing in x,y,z = 1.0000000 1.0000000 1.0000000
region 	            all block 0 53.4 0.017010596628960428.0 50.890109403371014.0 0.017010596628960428.0 50.890109403371014.0 units box
create_box          1 all
Created orthogonal box = (0.0000000 0.017010597 0.017010597) to (53.400000 50.890109 50.890109)

# fill box with 4175 randomly distributed atoms
#
create_atoms        1 random 4608 63782 all
Created 4608 atoms
mass                1 18.015

# Define potential
#
pair_style          sw
pair_coeff          * * /data/emrosky-sim/Freezing_Simulations/Melting/MLmW_fancy/ML_mW.sw mW
Reading sw potential file /data/emrosky-sim/Freezing_Simulations/Melting/MLmW_fancy/ML_mW.sw with DATE: 2019-02-27

# Run minimization
#
minimize            1.0e-8 1.0e-8 10000 1000
  update every 1 steps, delay 0 steps, check yes
Step Temp E_pair E_mol TotEng Press
0            0    7275160.8            0    7275160.8    5003460.1
Loop time of 1.37833 on 6 procs for 660 steps with 4608 atoms

Minimization stats:
  Stopping criterion = max force evaluations
  Energy initial, next-to-last, final =
  Force two-norm initial, final = 1.6730796e+08 4.5521862
  Force max component initial, final = 88916367.0 0.83270487
  Final line search alpha, max atom move = 0.064182844 0.053445367
  Iterations, force evaluations = 660 1000

# Add velocity/set timestep
#
velocity            all create 286 120598 rot yes dist gaussian
timestep            5.0

# Define output
#
compute	            1 all msd
thermo	            100
thermo_style        custom step temp press vol etotal ke pe c_1[4] density

# Neighbor lists
#
neigh_modify        delay 0 every 1 check yes

# Set fixes
#
fix                 1 all momentum 10 linear 1 1 1 rescale
fix                 2 all nve
fix                 3 all temp/csvr 286 286 500.0 928347
fix                 4 all press/berendsen iso 1 1 1000.0 modulus 20000

# Run 0.5 ns equilibration
#
dump                1 all custom 1000 eq.liq_286K_1atm_ML.dump id type x y z vx vy vz
run                 100000
Step Temp Press Volume TotEng KinEng PotEng c_1[4] Density
660          286    1213.1888    138203.05   -45960.746    3927.5213   -49888.267            0   0.99742019
Averages over the last 501 of 1002 rows, steps 50700 to 100660:
Temp Press Volume TotEng KinEng PotEng c_1[4] Density
285.647 1.27198 138132 -41313.1 3922.67 -45235.8 853.661 0.997938
Loop time of 125.439 on 6 procs for 100000 steps with 4608 atoms

undump              1
unfix               2
unfix               3
unfix               4

################################################
#######         Run Simulation         #########
################################################

reset_timestep      0
log                 log.run_liq_286K_1atm_ML
