# Create simulation box of size 50 x 50 x 50 Angstrom
#
lattice	            sc 1
Lattice spacing in x,y,z = 1.0000000 1.0000000 1.0000000
region 	            all block 0 53.4 -0.08155915612855225.0 50.988679156128924.0 -0.08155915612855225.0 50.988679156128924.0 units box
create_box          1 all
Created orthogonal box = (0.0000000 -0.081559156 -0.081559156) to (53.400000 50.988679 50.988679)

# fill box with 4175 randomly distributed atoms
#
create_atoms        1 random 4608 63782 all
Created 4608 atoms
mass                1 18.015

# Define potential
#
pair_style          sw
pair_coeff          * * /data/emrosky-sim/Freezing_Simulations/Melting/MLmW_fancy/ML_mW.sw mW
Reading sw potential file /data/emrosky-sim/Freezing_Simulations/Melting/MLmW_fancy/ML_mW.sw with DATE: 2019-02-27

# Run minimization
#
minimize            1.0e-8 1.0e-8 10000 1000
  update every 1 steps, delay 0 steps, check yes
Step Temp E_pair E_mol TotEng Press
0            0    7204283.1            0    7204283.1    4916379.9
Loop time of 1.25398 on 6 procs for 663 steps with 4608 atoms

Minimization stats:
  Stopping criterion = max force evaluations
  Energy initial, next-to-last, final =
  Force two-norm initial, final = 1.6545325e+08 8.6568781
  Force max component initial, final = 88075303.0 1.8148032
  Final line search alpha, max atom move = 0.041270226 0.07489734
  Iterations, force evaluations = 663 1001

# Add velocity/set timestep
#
velocity            all create 295 120598 rot yes dist gaussian
timestep            5.0

# Define output
#
compute	            1 all msd
thermo	            100
thermo_style        custom step temp press vol etotal ke pe c_1[4] density

# Neighbor lists
#
neigh_modify        delay 0 every 1 check yes

# Set fixes
#
fix                 1 all momentum 10 linear 1 1 1 rescale
fix                 2 all nve
fix                 3 all temp/csvr 295 295 500.0 928347
fix                 4 all press/berendsen iso -1000 -1000 1000.0 modulus 20000

# Run 0.5 ns equilibration
#
dump                1 all custom 1000 eq.liq_295K_-1000atm_ML.dump id type x y z vx vy vz
run                 100000
Step Temp Press Volume TotEng KinEng PotEng c_1[4] Density
663          295    869.42989    139276.24   -45832.896    4051.1146   -49884.011 2.0230623e-33   0.98973464
Averages over the last 501 of 1002 rows, steps 50700 to 100663:
Temp Press Volume TotEng KinEng PotEng c_1[4] Density
294.425 -1001.85 142807 -40885.4 4043.22 -44928.6 832.794 0.965272
Loop time of 112.02 on 6 procs for 100000 steps with 4608 atoms

undump              1
unfix               2
unfix               3
unfix               4

################################################
#######         Run Simulation         #########
################################################

reset_timestep      0
log                 log.run_liq_295K_-1000atm_ML
