read_data data.ice_295K_-1000atm_ML group ice
Reading data file ...
  orthogonal box = (-0.091754051 -0.081559156 -0.081559156) to (57.362264 50.988679 50.988679)
  reading atoms ...
  4608 atoms
  reading velocities ...
  4608 velocities
read_data data.liq_295K_-1000atm_ML add append shift 50.9886791561289 0.0815591561285522 0.0815591561285522 group water
Reading data file ...
  orthogonal box = (-0.091754051 -0.19251948 -0.19251948) to (104.47957 51.262758 51.262758)
  reading atoms ...
  4608 atoms
  reading velocities ...
  4608 velocities

write_data data.icewater_test
System init for write_data ...

# Define potential
#
pair_style sw
pair_coeff * * /data/emrosky-sim/Freezing_Simulations/Melting/MLmW_fancy/ML_mW.sw mW
Reading sw potential file /data/emrosky-sim/Freezing_Simulations/Melting/MLmW_fancy/ML_mW.sw with DATE: 2019-02-27

# Delete water and ice atoms that are overlapping
#
delete_atoms overlap 2.5 water ice
System init for delete_atoms ...
  update every 1 steps, delay 10 steps, check yes
Deleted 673 atoms, new total = 8543

# set timestep
#
timestep 10.0

# Define output
#
compute 1 all msd
thermo 50
thermo_style custom step temp press vol etotal ke pe c_1[4]

# Neighbor lists
#
neigh_modify delay 0 every 1 check yes

# Set fixes
#
fix 1 all momentum 10 linear 1 1 1 rescale
fix 2 all nph iso -1000 -1000 10000.0
fix 3 all temp/csvr 295 295 5000.0 837492

# Fix ice atoms in place
#
velocity ice set 0.0 0.0 0.0
fix 4 ice setforce 0.0 0.0 0.0

# Run 1.0 ns equilibration of water
#
dump 1 all atom 1000 eq.all.coexist_295K_-1000atm_ML.dump
run 100000
  update every 1 steps, delay 0 steps, check yes
Step Temp Press Volume TotEng KinEng PotEng c_1[4]
0    134.27284   -1958.1148     276867.8   -83814.532    3418.8658   -87233.397            0
Averages over the last 1001 of 2001 rows, steps 50000 to 100000:
Temp Press Volume TotEng KinEng PotEng c_1[4]
295.72 -999.366 279223 -75975.4 7529.64 -83505 3932.4
Loop time of 247.715 on 6 procs for 100000 steps with 8543 atoms

# Create data file for import to other simulations
#
write_data data.coexist_295K_-1000atm_ML
System init for write_data ...
