read_data data.ice_272K_-500atm_mW group ice
Reading data file ...
  orthogonal box = (0.40679473 0.36159532 0.36159532) to (56.863715 50.545525 50.545525)
  reading atoms ...
  4608 atoms
  reading velocities ...
  4608 velocities
read_data data.liq_272K_-500atm_mW add append shift 50.54552468318 -0.361595316822246 -0.361595316822246 group water
Reading data file ...
  orthogonal box = (0.40679473 -0.27225222 -0.27225222) to (104.21501 50.545525 50.545525)
  reading atoms ...
  4608 atoms
  reading velocities ...
  4608 velocities

write_data data.icewater_test
System init for write_data ...

# Define potential
#
pair_style sw
pair_coeff * * /data/emrosky-sim/Freezing_Simulations/Melting/mW_fancy/mW.sw mW
Reading sw potential file /data/emrosky-sim/Freezing_Simulations/Melting/mW_fancy/mW.sw with DATE: 2019-02-27

# Delete water and ice atoms that are overlapping
#
delete_atoms overlap 2.5 water ice
System init for delete_atoms ...
  update every 1 steps, delay 10 steps, check yes
Deleted 699 atoms, new total = 8517

# set timestep
#
timestep 10.0

# Define output
#
compute 1 all msd
thermo 50
thermo_style custom step temp press vol etotal ke pe c_1[4]

# Neighbor lists
#
neigh_modify delay 0 every 1 check yes

# Set fixes
#
fix 1 all momentum 10 linear 1 1 1 rescale
fix 2 all nph iso -500 -500 10000.0
fix 3 all temp/csvr 272 272 5000.0 837492

# Fix ice atoms in place
#
velocity ice set 0.0 0.0 0.0
fix 4 ice setforce 0.0 0.0 0.0

# Run 1.0 ns equilibration of water
#
dump 1 all atom 1000 eq.all.coexist_272K_-500atm_mW.dump
run 100000
  update every 1 steps, delay 0 steps, check yes
Step Temp Press Volume TotEng KinEng PotEng c_1[4]
0    125.66993   -2055.9625    268079.17   -86535.522    3190.0781     -89725.6            0
Averages over the last 1001 of 2001 rows, steps 50000 to 100000:
Temp Press Volume TotEng KinEng PotEng c_1[4]
272.546 -504.335 269085 -79955.5 6918.45 -86873.9 3940.19
Loop time of 352.265 on 6 procs for 100000 steps with 8517 atoms

# Create data file for import to other simulations
#
write_data data.coexist_272K_-500atm_mW
System init for write_data ...
