# Create simulation box of size 50 x 50 x 50 Angstrom
#
lattice	            sc 1
Lattice spacing in x,y,z = 1.0000000 1.0000000 1.0000000
region 	            all block 0 53.4 -0.048211865426608824.0 50.95533186542683.0 -0.048211865426608824.0 50.95533186542683.0 units box
create_box          1 all
Created orthogonal box = (0.0000000 -0.048211865 -0.048211865) to (53.400000 50.955332 50.955332)

# fill box with 4175 randomly distributed atoms
#
create_atoms        1 random 4608 63782 all
Created 4608 atoms
mass                1 18.015

# Define potential
#
pair_style          sw
pair_coeff          * * /data/emrosky-sim/Freezing_Simulations/Melting/MLmW_fancy/ML_mW.sw mW
Reading sw potential file /data/emrosky-sim/Freezing_Simulations/Melting/MLmW_fancy/ML_mW.sw with DATE: 2019-02-27

# Run minimization
#
minimize            1.0e-8 1.0e-8 10000 1000
  update every 1 steps, delay 0 steps, check yes
Step Temp E_pair E_mol TotEng Press
0            0    7228163.5            0    7228163.5    4945638.1
Loop time of 1.22061 on 6 procs for 660 steps with 4608 atoms

Minimization stats:
  Stopping criterion = max force evaluations
  Energy initial, next-to-last, final =
  Force two-norm initial, final = 1.6607828e+08 6.6800726
  Force max component initial, final = 88359023.0 1.3106924
  Final line search alpha, max atom move = 0.04903038 0.064263749
  Iterations, force evaluations = 660 1001

# Add velocity/set timestep
#
velocity            all create 296 120598 rot yes dist gaussian
timestep            5.0

# Define output
#
compute	            1 all msd
thermo	            100
thermo_style        custom step temp press vol etotal ke pe c_1[4] density

# Neighbor lists
#
neigh_modify        delay 0 every 1 check yes

# Set fixes
#
fix                 1 all momentum 10 linear 1 1 1 rescale
fix                 2 all nve
fix                 3 all temp/csvr 296 296 500.0 928347
fix                 4 all press/berendsen iso -500 -500 1000.0 modulus 20000

# Run 0.5 ns equilibration
#
dump                1 all custom 1000 eq.liq_296K_-500atm_ML.dump id type x y z vx vy vz
run                 100000
Step Temp Press Volume TotEng KinEng PotEng c_1[4] Density
660          296    980.61273     138912.7   -45821.289    4064.8472   -49886.136            0   0.99232478
Averages over the last 501 of 1002 rows, steps 50700 to 100660:
Temp Press Volume TotEng KinEng PotEng c_1[4] Density
295.331 -493.188 140287 -40885.2 4055.66 -44940.8 904.319 0.982612
Loop time of 117.941 on 6 procs for 100000 steps with 4608 atoms

undump              1
unfix               2
unfix               3
unfix               4

################################################
#######         Run Simulation         #########
################################################

reset_timestep      0
log                 log.run_liq_296K_-500atm_ML
