read_data data.ice_296K_-500atm_ML group ice
Reading data file ...
  orthogonal box = (-0.054238349 -0.048211865 -0.048211865) to (57.324748 50.955332 50.955332)
  reading atoms ...
  4608 atoms
  reading velocities ...
  4608 velocities
read_data data.liq_296K_-500atm_ML add append shift 50.9553318654268 0.0482118654266088 0.0482118654266088 group water
Reading data file ...
  orthogonal box = (-0.054238349 -0.075117301 -0.075117301) to (104.66996 51.078661 51.078661)
  reading atoms ...
  4608 atoms
  reading velocities ...
  4608 velocities

write_data data.icewater_test
System init for write_data ...

# Define potential
#
pair_style sw
pair_coeff * * /data/emrosky-sim/Freezing_Simulations/Melting/MLmW_fancy/ML_mW.sw mW
Reading sw potential file /data/emrosky-sim/Freezing_Simulations/Melting/MLmW_fancy/ML_mW.sw with DATE: 2019-02-27

# Delete water and ice atoms that are overlapping
#
delete_atoms overlap 2.5 water ice
System init for delete_atoms ...
  update every 1 steps, delay 10 steps, check yes
Deleted 714 atoms, new total = 8502

# set timestep
#
timestep 10.0

# Define output
#
compute 1 all msd
thermo 50
thermo_style custom step temp press vol etotal ke pe c_1[4]

# Neighbor lists
#
neigh_modify delay 0 every 1 check yes

# Set fixes
#
fix 1 all momentum 10 linear 1 1 1 rescale
fix 2 all nph iso -500 -500 10000.0
fix 3 all temp/csvr 296 296 5000.0 837492

# Fix ice atoms in place
#
velocity ice set 0.0 0.0 0.0
fix 4 ice setforce 0.0 0.0 0.0

# Run 1.0 ns equilibration of water
#
dump 1 all atom 1000 eq.all.coexist_296K_-500atm_ML.dump
run 100000
  update every 1 steps, delay 0 steps, check yes
Step Temp Press Volume TotEng KinEng PotEng c_1[4]
0    135.83613   -1189.5434    274032.76   -83698.111    3442.0693    -87140.18            0
Averages over the last 1001 of 2001 rows, steps 50000 to 100000:
Temp Press Volume TotEng KinEng PotEng c_1[4]
296.877 -500.297 277125 -75909.3 7522.83 -83432.1 3863.03
Loop time of 245.108 on 6 procs for 100000 steps with 8502 atoms

# Create data file for import to other simulations
#
write_data data.coexist_296K_-500atm_ML
System init for write_data ...
