# Create simulation box of size 50 x 50 x 50 Angstrom
#
lattice	            sc 1
Lattice spacing in x,y,z = 1.0000000 1.0000000 1.0000000
region 	            all block 0 53.4 0.33227477525907645.0 50.574845224744145.0 0.33227477525907645.0 50.574845224744145.0 units box
create_box          1 all
Created orthogonal box = (0.0000000 0.33227478 0.33227478) to (53.400000 50.574845 50.574845)

# fill box with 4175 randomly distributed atoms
#
create_atoms        1 random 4608 63782 all
Created 4608 atoms
mass                1 18.015

# Define potential
#
pair_style          sw
pair_coeff          * * /data/emrosky-sim/Freezing_Simulations/Melting/mW_fancy/mW.sw mW
Reading sw potential file /data/emrosky-sim/Freezing_Simulations/Melting/mW_fancy/mW.sw with DATE: 2019-02-27

# Run minimization
#
minimize            1.0e-8 1.0e-8 10000 1000
  update every 1 steps, delay 0 steps, check yes
Step Temp E_pair E_mol TotEng Press
0            0    4732244.9            0    4732244.9    3354329.6
Loop time of 2.12864 on 6 procs for 694 steps with 4608 atoms

Minimization stats:
  Stopping criterion = max force evaluations
  Energy initial, next-to-last, final =
  Force two-norm initial, final = 1.0827661e+08 3.3169380
  Force max component initial, final = 57233065.0 0.89126546
  Final line search alpha, max atom move = 0.057991327 0.051685666
  Iterations, force evaluations = 694 1001

# Add velocity/set timestep
#
velocity            all create 276 120598 rot yes dist gaussian
timestep            5.0

# Define output
#
compute	            1 all msd
thermo	            100
thermo_style        custom step temp press vol etotal ke pe c_1[4] density

# Neighbor lists
#
neigh_modify        delay 0 every 1 check yes

# Set fixes
#
fix                 1 all momentum 10 linear 1 1 1 rescale
fix                 2 all nve
fix                 3 all temp/csvr 276 276 500.0 928347
fix                 4 all press/berendsen iso -1000 -1000 1000.0 modulus 20000

# Run 0.5 ns equilibration
#
dump                1 all custom 1000 eq.liq_276K_-1000atm_mW.dump id type x y z vx vy vz
run                 100000
Step Temp Press Volume TotEng KinEng PotEng c_1[4] Density
694          276    1642.4981    134798.47   -48479.925    3790.1954   -52270.121 1.8082342e-33    1.0226119
Averages over the last 501 of 1002 rows, steps 50700 to 100694:
Temp Press Volume TotEng KinEng PotEng c_1[4] Density
275.309 -997.685 140768 -43095.9 3780.7 -46876.6 1002.23 0.979249
Loop time of 176.531 on 6 procs for 100000 steps with 4608 atoms

undump              1
unfix               2
unfix               3
unfix               4

################################################
#######         Run Simulation         #########
################################################

reset_timestep      0
log                 log.run_liq_276K_-1000atm_mW
