read_data data.ice_276K_-1000atm_mW group ice
Reading data file ...
  orthogonal box = (0.37380912 0.33227478 0.33227478) to (56.896701 50.574845 50.574845)
  reading atoms ...
  4608 atoms
  reading velocities ...
  4608 velocities
read_data data.liq_276K_-1000atm_mW add append shift 50.5748452247441 -0.332274775259076 -0.332274775259076 group water
Reading data file ...
  orthogonal box = (0.37380912 -0.38411255 -0.38411255) to (104.34056 50.626683 50.626683)
  reading atoms ...
  4608 atoms
  reading velocities ...
  4608 velocities

write_data data.icewater_test
System init for write_data ...

# Define potential
#
pair_style sw
pair_coeff * * /data/emrosky-sim/Freezing_Simulations/Melting/mW_fancy/mW.sw mW
Reading sw potential file /data/emrosky-sim/Freezing_Simulations/Melting/mW_fancy/mW.sw with DATE: 2019-02-27

# Delete water and ice atoms that are overlapping
#
delete_atoms overlap 2.5 water ice
System init for delete_atoms ...
  update every 1 steps, delay 10 steps, check yes
Deleted 718 atoms, new total = 8498

# set timestep
#
timestep 10.0

# Define output
#
compute 1 all msd
thermo 50
thermo_style custom step temp press vol etotal ke pe c_1[4]

# Neighbor lists
#
neigh_modify delay 0 every 1 check yes

# Set fixes
#
fix 1 all momentum 10 linear 1 1 1 rescale
fix 2 all nph iso -1000 -1000 10000.0
fix 3 all temp/csvr 276 276 5000.0 837492

# Fix ice atoms in place
#
velocity ice set 0.0 0.0 0.0
fix 4 ice setforce 0.0 0.0 0.0

# Run 1.0 ns equilibration of water
#
dump 1 all atom 1000 eq.all.coexist_276K_-1000atm_mW.dump
run 100000
  update every 1 steps, delay 0 steps, check yes
Step Temp Press Volume TotEng KinEng PotEng c_1[4]
0    125.41522   -2254.1545    270532.02   -85722.979    3176.5096   -88899.488            0
Averages over the last 1001 of 2001 rows, steps 50000 to 100000:
Temp Press Volume TotEng KinEng PotEng c_1[4]
276.738 -1001.33 271916 -78937.2 7009.21 -85946.4 4201.94
Loop time of 340.257 on 6 procs for 100000 steps with 8498 atoms

# Create data file for import to other simulations
#
write_data data.coexist_276K_-1000atm_mW
System init for write_data ...
