# Create simulation box of size 50 x 50 x 50 Angstrom
#
lattice	            sc 1
Lattice spacing in x,y,z = 1.0000000 1.0000000 1.0000000
region 	            all block 0 53.4 0.4115202783211771.0 50.495599721674814.0 0.4115202783211771.0 50.495599721674814.0 units box
create_box          1 all
Created orthogonal box = (0.0000000 0.41152028 0.41152028) to (53.400000 50.495600 50.495600)

# fill box with 4175 randomly distributed atoms
#
create_atoms        1 random 4608 63782 all
Created 4608 atoms
mass                1 18.015

# Define potential
#
pair_style          sw
pair_coeff          * * /data/emrosky-sim/Freezing_Simulations/Melting/mW_fancy/mW.sw mW
Reading sw potential file /data/emrosky-sim/Freezing_Simulations/Melting/mW_fancy/mW.sw with DATE: 2019-02-27

# Run minimization
#
minimize            1.0e-8 1.0e-8 10000 1000
  update every 1 steps, delay 0 steps, check yes
Step Temp E_pair E_mol TotEng Press
0            0    4770296.4            0    4770296.4    3402876.5
Loop time of 2.44805 on 6 procs for 677 steps with 4608 atoms

Minimization stats:
  Stopping criterion = max force evaluations
  Energy initial, next-to-last, final =
  Force two-norm initial, final = 1.0925176e+08 1.6596732
  Force max component initial, final = 57669489.0 0.62949293
  Final line search alpha, max atom move = 0.075778559 0.047702067
  Iterations, force evaluations = 677 1000

# Add velocity/set timestep
#
velocity            all create 270 120598 rot yes dist gaussian
timestep            5.0

# Define output
#
compute	            1 all msd
thermo	            100
thermo_style        custom step temp press vol etotal ke pe c_1[4] density

# Neighbor lists
#
neigh_modify        delay 0 every 1 check yes

# Set fixes
#
fix                 1 all momentum 10 linear 1 1 1 rescale
fix                 2 all nve
fix                 3 all temp/csvr 270 270 500.0 928347
fix                 4 all press/berendsen iso 1 1 1000.0 modulus 20000

# Run 0.5 ns equilibration
#
dump                1 all custom 1000 eq.liq_270K_1atm_mW.dump id type x y z vx vy vz
run                 100000
Step Temp Press Volume TotEng KinEng PotEng c_1[4] Density
677          270     1478.687    133949.36   -48467.787    3707.7998   -52175.587            0    1.0290942
Averages over the last 501 of 1002 rows, steps 50700 to 100677:
Temp Press Volume TotEng KinEng PotEng c_1[4] Density
269.269 2.21509 137526 -43422.2 3697.77 -47120 984.221 1.00233
Loop time of 191.847 on 6 procs for 100000 steps with 4608 atoms

undump              1
unfix               2
unfix               3
unfix               4

################################################
#######         Run Simulation         #########
################################################

reset_timestep      0
log                 log.run_liq_270K_1atm_mW
