read_data data.ice_270K_1atm_mW group ice
Reading data file ...
  orthogonal box = (0.46296031 0.41152028 0.41152028) to (56.807550 50.495600 50.495600)
  reading atoms ...
  4608 atoms
  reading velocities ...
  4608 velocities
read_data data.liq_270K_1atm_mW add append shift 50.4955997216748 -0.411520278321177 -0.411520278321177 group water
Reading data file ...
  orthogonal box = (0.46296031 -0.21888014 -0.21888014) to (104.14152 50.495600 50.495600)
  reading atoms ...
  4608 atoms
  reading velocities ...
  4608 velocities

write_data data.icewater_test
System init for write_data ...

# Define potential
#
pair_style sw
pair_coeff * * /data/emrosky-sim/Freezing_Simulations/Melting/mW_fancy/mW.sw mW
Reading sw potential file /data/emrosky-sim/Freezing_Simulations/Melting/mW_fancy/mW.sw with DATE: 2019-02-27

# Delete water and ice atoms that are overlapping
#
delete_atoms overlap 2.5 water ice
System init for delete_atoms ...
  update every 1 steps, delay 10 steps, check yes
Deleted 698 atoms, new total = 8518

# set timestep
#
timestep 10.0

# Define output
#
compute 1 all msd
thermo 50
thermo_style custom step temp press vol etotal ke pe c_1[4]

# Neighbor lists
#
neigh_modify delay 0 every 1 check yes

# Set fixes
#
fix 1 all momentum 10 linear 1 1 1 rescale
fix 2 all nph iso 1 1 10000.0
fix 3 all temp/csvr 270 270 5000.0 837492

# Fix ice atoms in place
#
velocity ice set 0.0 0.0 0.0
fix 4 ice setforce 0.0 0.0 0.0

# Run 1.0 ns equilibration of water
#
dump 1 all atom 1000 eq.all.coexist_270K_1atm_mW.dump
run 100000
  update every 1 steps, delay 0 steps, check yes
Step Temp Press Volume TotEng KinEng PotEng c_1[4]
0    122.92444   -1876.1944    266656.94   -86726.321    3120.7515   -89847.073            0
Averages over the last 1001 of 2001 rows, steps 50000 to 100000:
Temp Press Volume TotEng KinEng PotEng c_1[4]
270.703 1.21275 266604 -80230.3 6872.49 -87102.8 3783.57
Loop time of 363.133 on 6 procs for 100000 steps with 8518 atoms

# Create data file for import to other simulations
#
write_data data.coexist_270K_1atm_mW
System init for write_data ...
