# Create simulation box of size 50 x 50 x 50 Angstrom
#
lattice	            sc 1
Lattice spacing in x,y,z = 1.0000000 1.0000000 1.0000000
region 	            all block 0 53.4 -0.027611615032117953.0 50.9347316150334.0 -0.027611615032117953.0 50.9347316150334.0 units box
create_box          1 all
Created orthogonal box = (0.0000000 -0.027611615 -0.027611615) to (53.400000 50.934732 50.934732)

# fill box with 4175 randomly distributed atoms
#
create_atoms        1 random 4608 63782 all
Created 4608 atoms
mass                1 18.015

# Define potential
#
pair_style          sw
pair_coeff          * * /data/emrosky-sim/Freezing_Simulations/Melting/MLmW_fancy/ML_mW.sw mW
Reading sw potential file /data/emrosky-sim/Freezing_Simulations/Melting/MLmW_fancy/ML_mW.sw with DATE: 2019-02-27

# Run minimization
#
minimize            1.0e-8 1.0e-8 10000 1000
  update every 1 steps, delay 0 steps, check yes
Step Temp E_pair E_mol TotEng Press
0            0    7242965.7            0    7242965.7    4963815.2
Loop time of 1.23387 on 6 procs for 665 steps with 4608 atoms

Minimization stats:
  Stopping criterion = max force evaluations
  Energy initial, next-to-last, final =
  Force two-norm initial, final = 1.6646563e+08 4.9464241
  Force max component initial, final = 88534711.0 1.3561256
  Final line search alpha, max atom move = 0.035935764 0.048733411
  Iterations, force evaluations = 665 1000

# Add velocity/set timestep
#
velocity            all create 294 120598 rot yes dist gaussian
timestep            5.0

# Define output
#
compute	            1 all msd
thermo	            100
thermo_style        custom step temp press vol etotal ke pe c_1[4] density

# Neighbor lists
#
neigh_modify        delay 0 every 1 check yes

# Set fixes
#
fix                 1 all momentum 10 linear 1 1 1 rescale
fix                 2 all nve
fix                 3 all temp/csvr 294 294 500.0 928347
fix                 4 all press/berendsen iso -500 -500 1000.0 modulus 20000

# Run 0.5 ns equilibration
#
dump                1 all custom 1000 eq.liq_294K_-500atm_ML.dump id type x y z vx vy vz
run                 100000
Step Temp Press Volume TotEng KinEng PotEng c_1[4] Density
665          294    1067.5409    138688.37   -45832.112     4037.382   -49869.494 4.175569e-33   0.99392992
Averages over the last 501 of 1002 rows, steps 50700 to 100665:
Temp Press Volume TotEng KinEng PotEng c_1[4] Density
293.392 -502.349 140260 -40966.5 4029.03 -44995.5 887.514 0.982795
Loop time of 116.29 on 6 procs for 100000 steps with 4608 atoms

undump              1
unfix               2
unfix               3
unfix               4

################################################
#######         Run Simulation         #########
################################################

reset_timestep      0
log                 log.run_liq_294K_-500atm_ML
