read_data data.ice_274K_-500atm_mW group ice
Reading data file ...
  orthogonal box = (0.45729537 0.40648477 0.40648477) to (56.813215 50.500635 50.500635)
  reading atoms ...
  4608 atoms
  reading velocities ...
  4608 velocities
read_data data.liq_274K_-500atm_mW add append shift 50.5006352253105 -0.406484774685605 -0.406484774685605 group water
Reading data file ...
  orthogonal box = (0.45729537 -0.3065816 -0.3065816) to (104.27090 50.500635 50.500635)
  reading atoms ...
  4608 atoms
  reading velocities ...
  4608 velocities

write_data data.icewater_test
System init for write_data ...

# Define potential
#
pair_style sw
pair_coeff * * /data/emrosky-sim/Freezing_Simulations/Melting/mW_fancy/mW.sw mW
Reading sw potential file /data/emrosky-sim/Freezing_Simulations/Melting/mW_fancy/mW.sw with DATE: 2019-02-27

# Delete water and ice atoms that are overlapping
#
delete_atoms overlap 2.5 water ice
System init for delete_atoms ...
  update every 1 steps, delay 10 steps, check yes
Deleted 699 atoms, new total = 8517

# set timestep
#
timestep 10.0

# Define output
#
compute 1 all msd
thermo 50
thermo_style custom step temp press vol etotal ke pe c_1[4]

# Neighbor lists
#
neigh_modify delay 0 every 1 check yes

# Set fixes
#
fix 1 all momentum 10 linear 1 1 1 rescale
fix 2 all nph iso -500 -500 10000.0
fix 3 all temp/csvr 274 274 5000.0 837492

# Fix ice atoms in place
#
velocity ice set 0.0 0.0 0.0
fix 4 ice setforce 0.0 0.0 0.0

# Run 1.0 ns equilibration of water
#
dump 1 all atom 1000 eq.all.coexist_274K_-500atm_mW.dump
run 100000
  update every 1 steps, delay 0 steps, check yes
Step Temp Press Volume TotEng KinEng PotEng c_1[4]
0    127.08914   -1788.1515    267981.67   -86115.947    3226.1042   -89342.052            0
Averages over the last 1001 of 2001 rows, steps 50000 to 100000:
Temp Press Volume TotEng KinEng PotEng c_1[4]
274.606 -502.173 269515 -79557.2 6970.75 -86528 3938.63
Loop time of 348.203 on 6 procs for 100000 steps with 8517 atoms

# Create data file for import to other simulations
#
write_data data.coexist_274K_-500atm_mW
System init for write_data ...
