read_data data.ice_286K_1atm_ML group ice
Reading data file ...
  orthogonal box = (0.019724647 0.01753302 0.01753302) to (57.250785 50.889587 50.889587)
  reading atoms ...
  4608 atoms
  reading velocities ...
  4608 velocities
read_data data.liq_286K_1atm_ML add append shift 50.8895869801259 -0.0175330198725341 -0.0175330198725341 group water
Reading data file ...
  orthogonal box = (0.019724647 0.01753302 0.01753302) to (104.36232 50.889587 50.889587)
  reading atoms ...
  4608 atoms
  reading velocities ...
  4608 velocities

write_data data.icewater_test
System init for write_data ...

# Define potential
#
pair_style sw
pair_coeff * * /data/emrosky-sim/Freezing_Simulations/Melting/MLmW_fancy/ML_mW.sw mW
Reading sw potential file /data/emrosky-sim/Freezing_Simulations/Melting/MLmW_fancy/ML_mW.sw with DATE: 2019-02-27

# Delete water and ice atoms that are overlapping
#
delete_atoms overlap 2.5 water ice
System init for delete_atoms ...
  update every 1 steps, delay 10 steps, check yes
Deleted 689 atoms, new total = 8527

# set timestep
#
timestep 10.0

# Define output
#
compute 1 all msd
thermo 50
thermo_style custom step temp press vol etotal ke pe c_1[4]

# Neighbor lists
#
neigh_modify delay 0 every 1 check yes

# Set fixes
#
fix 1 all momentum 10 linear 1 1 1 rescale
fix 2 all nph iso 1 1 10000.0
fix 3 all temp/csvr 286 286 5000.0 837492

# Fix ice atoms in place
#
velocity ice set 0.0 0.0 0.0
fix 4 ice setforce 0.0 0.0 0.0

# Run 1.0 ns equilibration of water
#
dump 1 all atom 1000 eq.all.coexist_286K_1atm_ML.dump
run 100000
  update every 1 steps, delay 0 steps, check yes
Step Temp Press Volume TotEng KinEng PotEng c_1[4]
0    129.22377   -307.30275    270035.08   -84649.568    3284.1428   -87933.711            0
Averages over the last 1001 of 2001 rows, steps 50000 to 100000:
Temp Press Volume TotEng KinEng PotEng c_1[4]
286.782 3.84168 274391 -77211.9 7288.39 -84500.3 3606.6
Loop time of 250.125 on 6 procs for 100000 steps with 8527 atoms

# Create data file for import to other simulations
#
write_data data.coexist_286K_1atm_ML
System init for write_data ...
