# Create simulation box of size 50 x 50 x 50 Angstrom
#
lattice	            sc 1
Lattice spacing in x,y,z = 1.0000000 1.0000000 1.0000000
region 	            all block 0 53.4 0.017533019872534084.0 50.88958698012593.0 0.017533019872534084.0 50.88958698012593.0 units box
create_box          1 all
Created orthogonal box = (0.0000000 0.01753302 0.01753302) to (53.400000 50.889587 50.889587)

# fill box with 4175 randomly distributed atoms
#
create_atoms        1 random 4608 63782 all
Created 4608 atoms
mass                1 18.015

# Define potential
#
pair_style          sw
pair_coeff          * * /data/emrosky-sim/Freezing_Simulations/Melting/MLmW_fancy/ML_mW.sw mW
Reading sw potential file /data/emrosky-sim/Freezing_Simulations/Melting/MLmW_fancy/ML_mW.sw with DATE: 2019-02-27

# Run minimization
#
minimize            1.0e-8 1.0e-8 10000 1000
  update every 1 steps, delay 0 steps, check yes
Step Temp E_pair E_mol TotEng Press
0            0    7275538.8            0    7275538.8    5003926.4
Loop time of 1.27408 on 6 procs for 667 steps with 4608 atoms

Minimization stats:
  Stopping criterion = max force evaluations
  Energy initial, next-to-last, final =
  Force two-norm initial, final = 1.6731784e+08 6.3602226
  Force max component initial, final = 88920845.0 1.9463069
  Final line search alpha, max atom move = 0.049105528 0.09557443
  Iterations, force evaluations = 667 1000

# Add velocity/set timestep
#
velocity            all create 286 120598 rot yes dist gaussian
timestep            5.0

# Define output
#
compute	            1 all msd
thermo	            100
thermo_style        custom step temp press vol etotal ke pe c_1[4] density

# Neighbor lists
#
neigh_modify        delay 0 every 1 check yes

# Set fixes
#
fix                 1 all momentum 10 linear 1 1 1 rescale
fix                 2 all nve
fix                 3 all temp/csvr 286 286 500.0 928347
fix                 4 all press/berendsen iso 1 1 1000.0 modulus 20000

# Run 0.5 ns equilibration
#
dump                1 all custom 1000 eq.liq_286K_1atm_ML.dump id type x y z vx vy vz
run                 100000
Step Temp Press Volume TotEng KinEng PotEng c_1[4] Density
667          286    1008.3659    138197.38   -45946.015    3927.5213   -49873.536 3.1427181e-33   0.99746116
Averages over the last 501 of 1002 rows, steps 50700 to 100667:
Temp Press Volume TotEng KinEng PotEng c_1[4] Density
285.408 0.216009 138152 -41313.3 3919.4 -45232.7 859.827 0.997794
Loop time of 127.199 on 6 procs for 100000 steps with 4608 atoms

undump              1
unfix               2
unfix               3
unfix               4

################################################
#######         Run Simulation         #########
################################################

reset_timestep      0
log                 log.run_liq_286K_1atm_ML
