# Create simulation box of size ~50 x 30 x 30 Angstrom
#
#variable	    lattice_constant equal 6.36339
region all block 0 51.0356813265606 0 31.8973008291045 0 31.8973008291045 units box
create_box 1 all
Created orthogonal box = (0.0000000 0.0000000 0.0000000) to (51.035681 31.897301 31.897301)

# fill box with randomly distributed atoms
#
create_atoms 1 random 1672 63782 all
Created 1672 atoms
mass 1 18.015
group water region all
1672 atoms in group water

# Define potential
#
pair_style sw
pair_coeff * * ML.sw mW
Reading sw potential file ML.sw with DATE: 2019-02-27

# Run minimization
#
minimize 1.0e-8 1.0e-8 10000 1000
  update every 1 steps, delay 0 steps, check yes
Step Temp E_pair E_mol TotEng Press
0            0     10627782            0     10627782     18964415
Loop time of 1.14196 on 4 procs for 566 steps with 1672 atoms

Minimization stats:
  Stopping criterion = energy tolerance
  Energy initial, next-to-last, final =
  Force two-norm initial, final = 5.6373785e+08 0.10720348
  Force max component initial, final = 3.1726006e+08 0.024363501
  Final line search alpha, max atom move = 1.0000000 0.024363501
  Iterations, force evaluations = 566 920

# Add velocity/set timestep
#
velocity all create 289 120598 rot yes dist gaussian
timestep 10.0

# Define output
#
compute 1 all msd
thermo 50
thermo_style custom step temp press vol etotal ke pe c_1[4]

# Neighbor lists
#
neigh_modify delay 0 every 1 check yes

# Set fixes
#
fix 1 all momentum 10 linear 1 1 1 rescale
fix 2 all nve
fix 3 all temp/csvr 289 289 500.0 928347
fix 4 all press/berendsen iso -500 -500 1000.0 modulus 20000

# Run 1 ns equilibration
#
dump 1 all atom 1000 eq.water.icewater_289K_500atm_ML_DC.dump
run 100000
Step Temp Press Volume TotEng KinEng PotEng c_1[4]
566          289    114.93815    51925.631   -16555.871    1439.4898   -17995.361            0
Averages over the last 1001 of 2002 rows, steps 50600 to 100566:
Temp Press Volume TotEng KinEng PotEng c_1[4]
288.359 -496.022 50881.2 -14903.1 1436.3 -16339.4 1715.45
Loop time of 94.7936 on 4 procs for 100000 steps with 1672 atoms

undump 1
reset_timestep 0
#unfix 2
#unfix 3
#unfix 4

################################################
####### Insert Ice #########
################################################

log log.icewater_289K_500atm_ML_DC.eq_all
