read_data data.ice_287K_1atm_ML group ice
Reading data file ...
  orthogonal box = (-0.0098048138 -0.0087153901 -0.0087153901) to (57.280315 50.915835 50.915835)
  reading atoms ...
  4608 atoms
  reading velocities ...
  4608 velocities
read_data data.liq_287K_1atm_ML add append shift 50.9158353900743 0.0087153900736503 0.0087153900736503 group water
Reading data file ...
  orthogonal box = (-0.0098048138 -0.0087153901 -0.0087153901) to (104.28890 50.915835 50.915835)
  reading atoms ...
  4608 atoms
  reading velocities ...
  4608 velocities

write_data data.icewater_test
System init for write_data ...

# Define potential
#
pair_style sw
pair_coeff * * /data/emrosky-sim/Freezing_Simulations/Melting/MLmW_fancy/ML_mW.sw mW
Reading sw potential file /data/emrosky-sim/Freezing_Simulations/Melting/MLmW_fancy/ML_mW.sw with DATE: 2019-02-27

# Delete water and ice atoms that are overlapping
#
delete_atoms overlap 2.5 water ice
System init for delete_atoms ...
  update every 1 steps, delay 10 steps, check yes
Deleted 670 atoms, new total = 8546

# set timestep
#
timestep 10.0

# Define output
#
compute 1 all msd
thermo 50
thermo_style custom step temp press vol etotal ke pe c_1[4]

# Neighbor lists
#
neigh_modify delay 0 every 1 check yes

# Set fixes
#
fix 1 all momentum 10 linear 1 1 1 rescale
fix 2 all nph iso 1 1 10000.0
fix 3 all temp/csvr 287 287 5000.0 837492

# Fix ice atoms in place
#
velocity ice set 0.0 0.0 0.0
fix 4 ice setforce 0.0 0.0 0.0

# Run 1.0 ns equilibration of water
#
dump 1 all atom 1000 eq.all.coexist_287K_1atm_ML.dump
run 100000
  update every 1 steps, delay 0 steps, check yes
Step Temp Press Volume TotEng KinEng PotEng c_1[4]
0    130.00004   -321.28229    270478.86   -84667.482    3311.2338   -87978.716            0
Averages over the last 1001 of 2001 rows, steps 50000 to 100000:
Temp Press Volume TotEng KinEng PotEng c_1[4]
287.772 -1.1644 274494 -77354.2 7329.85 -84684 3695.43
Loop time of 256.588 on 6 procs for 100000 steps with 8546 atoms

# Create data file for import to other simulations
#
write_data data.coexist_287K_1atm_ML
System init for write_data ...
