# Create simulation box of size 50 x 50 x 50 Angstrom
#
lattice	            sc 1
Lattice spacing in x,y,z = 1.0000000 1.0000000 1.0000000
region 	            all block 0 53.4 -0.04436039885329279.0 50.95148039885213.0 -0.04436039885329279.0 50.95148039885213.0 units box
create_box          1 all
Created orthogonal box = (0.0000000 -0.044360399 -0.044360399) to (53.400000 50.951480 50.951480)

# fill box with 4175 randomly distributed atoms
#
create_atoms        1 random 4608 63782 all
Created 4608 atoms
mass                1 18.015

# Define potential
#
pair_style          sw
pair_coeff          * * /data/emrosky-sim/Freezing_Simulations/Melting/MLmW_fancy/ML_mW.sw mW
Reading sw potential file /data/emrosky-sim/Freezing_Simulations/Melting/MLmW_fancy/ML_mW.sw with DATE: 2019-02-27

# Run minimization
#
minimize            1.0e-8 1.0e-8 10000 1000
  update every 1 steps, delay 0 steps, check yes
Step Temp E_pair E_mol TotEng Press
0            0      7230928            0      7230928    4949030.6
Loop time of 1.20878 on 6 procs for 644 steps with 4608 atoms

Minimization stats:
  Stopping criterion = max force evaluations
  Energy initial, next-to-last, final =
  Force two-norm initial, final = 1.6615063e+08 2.4744404
  Force max component initial, final = 88391846.0 0.48117683
  Final line search alpha, max atom move = 0.064830182 0.031194782
  Iterations, force evaluations = 644 1001

# Add velocity/set timestep
#
velocity            all create 294 120598 rot yes dist gaussian
timestep            5.0

# Define output
#
compute	            1 all msd
thermo	            100
thermo_style        custom step temp press vol etotal ke pe c_1[4] density

# Neighbor lists
#
neigh_modify        delay 0 every 1 check yes

# Set fixes
#
fix                 1 all momentum 10 linear 1 1 1 rescale
fix                 2 all nve
fix                 3 all temp/csvr 294 294 500.0 928347
fix                 4 all press/berendsen iso -500 -500 1000.0 modulus 20000

# Run 0.5 ns equilibration
#
dump                1 all custom 1000 eq.liq_294K_-500atm_ML.dump id type x y z vx vy vz
run                 100000
Step Temp Press Volume TotEng KinEng PotEng c_1[4] Density
644          294    876.58123    138870.75   -45802.823     4037.382   -49840.205 4.9491159e-33   0.99262458
Averages over the last 501 of 1002 rows, steps 50700 to 100644:
Temp Press Volume TotEng KinEng PotEng c_1[4] Density
293.366 -495.569 140272 -40968.6 4028.67 -44997.3 902.322 0.982715
Loop time of 117.938 on 6 procs for 100000 steps with 4608 atoms

undump              1
unfix               2
unfix               3
unfix               4

################################################
#######         Run Simulation         #########
################################################

reset_timestep      0
log                 log.run_liq_294K_-500atm_ML
