read_data data.ice_294K_-500atm_ML group ice
Reading data file ...
  orthogonal box = (-0.049905449 -0.044360399 -0.044360399) to (57.320415 50.951480 50.951480)
  reading atoms ...
  4608 atoms
  reading velocities ...
  4608 velocities
read_data data.liq_294K_-500atm_ML add append shift 50.9514803988521 0.0443603988532928 0.0443603988532928 group water
Reading data file ...
  orthogonal box = (-0.049905449 -0.088541845 -0.088541845) to (104.28247 51.084383 51.084383)
  reading atoms ...
  4608 atoms
  reading velocities ...
  4608 velocities

write_data data.icewater_test
System init for write_data ...

# Define potential
#
pair_style sw
pair_coeff * * /data/emrosky-sim/Freezing_Simulations/Melting/MLmW_fancy/ML_mW.sw mW
Reading sw potential file /data/emrosky-sim/Freezing_Simulations/Melting/MLmW_fancy/ML_mW.sw with DATE: 2019-02-27

# Delete water and ice atoms that are overlapping
#
delete_atoms overlap 2.5 water ice
System init for delete_atoms ...
  update every 1 steps, delay 10 steps, check yes
Deleted 681 atoms, new total = 8535

# set timestep
#
timestep 10.0

# Define output
#
compute 1 all msd
thermo 50
thermo_style custom step temp press vol etotal ke pe c_1[4]

# Neighbor lists
#
neigh_modify delay 0 every 1 check yes

# Set fixes
#
fix 1 all momentum 10 linear 1 1 1 rescale
fix 2 all nph iso -500 -500 10000.0
fix 3 all temp/csvr 294 294 5000.0 837492

# Fix ice atoms in place
#
velocity ice set 0.0 0.0 0.0
fix 4 ice setforce 0.0 0.0 0.0

# Run 1.0 ns equilibration of water
#
dump 1 all atom 1000 eq.all.coexist_294K_-500atm_ML.dump
run 100000
  update every 1 steps, delay 0 steps, check yes
Step Temp Press Volume TotEng KinEng PotEng c_1[4]
0     135.7268   -661.56893    273211.88   -83931.943      3452.65   -87384.593            0
Averages over the last 1001 of 2001 rows, steps 50000 to 100000:
Temp Press Volume TotEng KinEng PotEng c_1[4]
294.864 -497.917 277506 -76282.1 7500.81 -83782.9 3793.82
Loop time of 250.775 on 6 procs for 100000 steps with 8535 atoms

# Create data file for import to other simulations
#
write_data data.coexist_294K_-500atm_ML
System init for write_data ...
