# Create simulation box of size 50 x 50 x 50 Angstrom
#
lattice	            sc 1
Lattice spacing in x,y,z = 1.0000000 1.0000000 1.0000000
region 	            all block 0 53.4 -0.04220816127328675.0 50.949328161273556.0 -0.04220816127328675.0 50.949328161273556.0 units box
create_box          1 all
Created orthogonal box = (0.0000000 -0.042208161 -0.042208161) to (53.400000 50.949328 50.949328)

# fill box with 4175 randomly distributed atoms
#
create_atoms        1 random 4608 63782 all
Created 4608 atoms
mass                1 18.015

# Define potential
#
pair_style          sw
pair_coeff          * * /data/emrosky-sim/Freezing_Simulations/Melting/MLmW_fancy/ML_mW.sw mW
Reading sw potential file /data/emrosky-sim/Freezing_Simulations/Melting/MLmW_fancy/ML_mW.sw with DATE: 2019-02-27

# Run minimization
#
minimize            1.0e-8 1.0e-8 10000 1000
  update every 1 steps, delay 0 steps, check yes
Step Temp E_pair E_mol TotEng Press
0            0    7232473.5            0    7232473.5    4950927.5
Loop time of 1.24568 on 6 procs for 668 steps with 4608 atoms

Minimization stats:
  Stopping criterion = max force evaluations
  Energy initial, next-to-last, final =
  Force two-norm initial, final = 1.6619107e+08 3.9957205
  Force max component initial, final = 88410192.0 1.0851206
  Final line search alpha, max atom move = 0.073851571 0.08013786
  Iterations, force evaluations = 668 1000

# Add velocity/set timestep
#
velocity            all create 291 120598 rot yes dist gaussian
timestep            5.0

# Define output
#
compute	            1 all msd
thermo	            100
thermo_style        custom step temp press vol etotal ke pe c_1[4] density

# Neighbor lists
#
neigh_modify        delay 0 every 1 check yes

# Set fixes
#
fix                 1 all momentum 10 linear 1 1 1 rescale
fix                 2 all nve
fix                 3 all temp/csvr 291 291 500.0 928347
fix                 4 all press/berendsen iso -500 -500 1000.0 modulus 20000

# Run 0.5 ns equilibration
#
dump                1 all custom 1000 eq.liq_291K_-500atm_ML.dump id type x y z vx vy vz
run                 100000
Step Temp Press Volume TotEng KinEng PotEng c_1[4] Density
668          291    777.42151     138847.3   -45906.802    3996.1842   -49902.987 1.9455111e-33   0.99279217
Averages over the last 501 of 1002 rows, steps 50700 to 100668:
Temp Press Volume TotEng KinEng PotEng c_1[4] Density
290.603 -502.11 140276 -41090.8 3990.73 -45081.5 875.792 0.982686
Loop time of 117.714 on 6 procs for 100000 steps with 4608 atoms

undump              1
unfix               2
unfix               3
unfix               4

################################################
#######         Run Simulation         #########
################################################

reset_timestep      0
log                 log.run_liq_291K_-500atm_ML
