read_data data.ice_271K_1atm_mW group ice
Reading data file ...
  orthogonal box = (0.50765675 0.45125044 0.45125044) to (56.762853 50.455870 50.455870)
  reading atoms ...
  4608 atoms
  reading velocities ...
  4608 velocities
read_data data.liq_271K_1atm_mW add append shift 50.4558695554449 -0.451250444554351 -0.451250444554351 group water
Reading data file ...
  orthogonal box = (0.50765675 -0.23712535 -0.23712535) to (104.25148 50.455870 50.455870)
  reading atoms ...
  4608 atoms
  reading velocities ...
  4608 velocities

write_data data.icewater_test
System init for write_data ...

# Define potential
#
pair_style sw
pair_coeff * * /data/emrosky-sim/Freezing_Simulations/Melting/mW_fancy/mW.sw mW
Reading sw potential file /data/emrosky-sim/Freezing_Simulations/Melting/mW_fancy/mW.sw with DATE: 2019-02-27

# Delete water and ice atoms that are overlapping
#
delete_atoms overlap 2.5 water ice
System init for delete_atoms ...
  update every 1 steps, delay 10 steps, check yes
Deleted 708 atoms, new total = 8508

# set timestep
#
timestep 10.0

# Define output
#
compute 1 all msd
thermo 50
thermo_style custom step temp press vol etotal ke pe c_1[4]

# Neighbor lists
#
neigh_modify delay 0 every 1 check yes

# Set fixes
#
fix 1 all momentum 10 linear 1 1 1 rescale
fix 2 all nph iso 1 1 10000.0
fix 3 all temp/csvr 271 271 5000.0 837492

# Fix ice atoms in place
#
velocity ice set 0.0 0.0 0.0
fix 4 ice setforce 0.0 0.0 0.0

# Run 1.0 ns equilibration of water
#
dump 1 all atom 1000 eq.all.coexist_271K_1atm_mW.dump
run 100000
  update every 1 steps, delay 0 steps, check yes
Step Temp Press Volume TotEng KinEng PotEng c_1[4]
0    123.89563   -1825.5221    266598.76   -86338.558    3141.7145   -89480.272            0
Averages over the last 1001 of 2001 rows, steps 50000 to 100000:
Temp Press Volume TotEng KinEng PotEng c_1[4]
271.646 5.94827 266557 -79990.7 6888.32 -86879 3829.82
Loop time of 355.517 on 6 procs for 100000 steps with 8508 atoms

# Create data file for import to other simulations
#
write_data data.coexist_271K_1atm_mW
System init for write_data ...
