# Create simulation box of size 50 x 50 x 50 Angstrom
#
lattice	            sc 1
Lattice spacing in x,y,z = 1.0000000 1.0000000 1.0000000
region 	            all block 0 53.4 0.4512504445543506.0 50.45586955544489.0 0.4512504445543506.0 50.45586955544489.0 units box
create_box          1 all
Created orthogonal box = (0.0000000 0.45125044 0.45125044) to (53.400000 50.455870 50.455870)

# fill box with 4175 randomly distributed atoms
#
create_atoms        1 random 4608 63782 all
Created 4608 atoms
mass                1 18.015

# Define potential
#
pair_style          sw
pair_coeff          * * /data/emrosky-sim/Freezing_Simulations/Melting/mW_fancy/mW.sw mW
Reading sw potential file /data/emrosky-sim/Freezing_Simulations/Melting/mW_fancy/mW.sw with DATE: 2019-02-27

# Run minimization
#
minimize            1.0e-8 1.0e-8 10000 1000
  update every 1 steps, delay 0 steps, check yes
Step Temp E_pair E_mol TotEng Press
0            0    4789520.3            0    4789520.3    3427529.2
Loop time of 2.13571 on 6 procs for 688 steps with 4608 atoms

Minimization stats:
  Stopping criterion = max force evaluations
  Energy initial, next-to-last, final =
  Force two-norm initial, final = 1.0974412e+08 3.8650405
  Force max component initial, final = 57889422.0 1.2757958
  Final line search alpha, max atom move = 0.039351279 0.050204197
  Iterations, force evaluations = 688 1001

# Add velocity/set timestep
#
velocity            all create 271 120598 rot yes dist gaussian
timestep            5.0

# Define output
#
compute	            1 all msd
thermo	            100
thermo_style        custom step temp press vol etotal ke pe c_1[4] density

# Neighbor lists
#
neigh_modify        delay 0 every 1 check yes

# Set fixes
#
fix                 1 all momentum 10 linear 1 1 1 rescale
fix                 2 all nve
fix                 3 all temp/csvr 271 271 500.0 928347
fix                 4 all press/berendsen iso 1 1 1000.0 modulus 20000

# Run 0.5 ns equilibration
#
dump                1 all custom 1000 eq.liq_271K_1atm_mW.dump id type x y z vx vy vz
run                 100000
Step Temp Press Volume TotEng KinEng PotEng c_1[4] Density
688          271    2112.6083    133524.67   -48523.674    3721.5324   -52245.206            0    1.0323674
Averages over the last 501 of 1002 rows, steps 50700 to 100688:
Temp Press Volume TotEng KinEng PotEng c_1[4] Density
270.526 -7.49644 137512 -43377.2 3715.03 -47092.2 1009.64 1.00243
Loop time of 185.658 on 6 procs for 100000 steps with 4608 atoms

undump              1
unfix               2
unfix               3
unfix               4

################################################
#######         Run Simulation         #########
################################################

reset_timestep      0
log                 log.run_liq_271K_1atm_mW
